MODEL 1
REMARK VINA RESULT:    -0.001      0.000      0.000
REMARK INTER + INTRA:          -0.976
REMARK INTER:                   0.000
REMARK INTRA:                  -0.976
REMARK UNBOUND:                -0.975
REMARK  Name = 
REMARK  7 active torsions:
REMARK  status: ('A' for Active; 'I' for Inactive)
REMARK    1  A    between atoms: C_1  and  C_2
REMARK    2  A    between atoms: C_4  and  C_12
REMARK    3  A    between atoms: C_15  and  O_18
REMARK    4  A    between atoms: O_18  and  C_19
REMARK    5  A    between atoms: C_19  and  C_20
REMARK    6  A    between atoms: C_20  and  O_21
REMARK    7  A    between atoms: O_21  and  C_22
REMARK                            x       y       z     vdW  Elec       q    Type
REMARK                         _______ _______ _______ _____ _____    ______ ____
ROOT
ATOM      1  C   UNL     1       1.818  -1.019   7.419  0.00  0.00    +0.000 C 
ATOM      2  C   UNL     1       2.484  -0.999   6.077  0.00  0.00    +0.000 A 
ATOM      3  C   UNL     1       2.055  -0.135   5.075  0.00  0.00    +0.000 A 
ATOM      4  C   UNL     1       2.721  -0.026   3.832  0.00  0.00    +0.000 A 
ATOM      5  C   UNL     1       3.866  -0.858   3.611  0.00  0.00    +0.000 A 
ATOM      6  C   UNL     1       4.700  -0.815   2.468  0.00  0.00    +0.000 A 
ATOM      7  C   UNL     1       5.747  -1.716   2.301  0.00  0.00    +0.000 A 
ATOM      8  C   UNL     1       5.978  -2.623   3.308  0.00  0.00    +0.000 A 
ATOM      9  N   UNL     1       5.265  -2.667   4.448  0.00  0.00    +0.000 NA
ATOM     10  C   UNL     1       4.248  -1.801   4.601  0.00  0.00    +0.000 A 
ATOM     11  C   UNL     1       3.563  -1.841   5.803  0.00  0.00    +0.000 A 
ENDROOT
BRANCH   4  12
ATOM     12  C   UNL     1       2.192   0.960   2.848  0.00  0.00    +0.000 A 
ATOM     13  C   UNL     1       1.250   0.548   1.891  0.00  0.00    +0.000 A 
ATOM     14  C   UNL     1       0.769   1.414   0.909  0.00  0.00    +0.000 A 
ATOM     15  C   UNL     1       1.180   2.744   0.873  0.00  0.00    +0.000 A 
ATOM     16  C   UNL     1       2.092   3.188   1.827  0.00  0.00    +0.000 A 
ATOM     17  C   UNL     1       2.618   2.297   2.777  0.00  0.00    +0.000 A 
BRANCH  15  18
ATOM     18  O   UNL     1       0.761   3.671  -0.048  0.00  0.00    +0.000 OA
BRANCH  18  19
ATOM     19  C   UNL     1       1.824   4.289  -0.774  0.00  0.00    +0.000 C 
BRANCH  19  20
ATOM     20  C   UNL     1       2.351   3.388  -1.876  0.00  0.00    +0.000 C 
BRANCH  20  21
ATOM     21  O   UNL     1       3.729   3.142  -1.585  0.00  0.00    +0.000 OA
ATOM     22  C   UNL     1       3.978   1.782  -1.272  0.00  0.00    +0.000 C 
ENDBRANCH  20  21
ENDBRANCH  19  20
ENDBRANCH  18  19
ENDBRANCH  15  18
ENDBRANCH   4  12
TORSDOF 5
ENDMDL
MODEL 2
REMARK VINA RESULT:    -0.001      7.374      8.501
REMARK INTER + INTRA:          -0.976
REMARK INTER:                   0.000
REMARK INTRA:                  -0.976
REMARK UNBOUND:                -0.975
REMARK  Name = 
REMARK  7 active torsions:
REMARK  status: ('A' for Active; 'I' for Inactive)
REMARK    1  A    between atoms: C_1  and  C_2
REMARK    2  A    between atoms: C_4  and  C_12
REMARK    3  A    between atoms: C_15  and  O_18
REMARK    4  A    between atoms: O_18  and  C_19
REMARK    5  A    between atoms: C_19  and  C_20
REMARK    6  A    between atoms: C_20  and  O_21
REMARK    7  A    between atoms: O_21  and  C_22
REMARK                            x       y       z     vdW  Elec       q    Type
REMARK                         _______ _______ _______ _____ _____    ______ ____
ROOT
ATOM      1  C   UNL     1       3.037  -3.111   2.578  0.00  0.00    +0.000 C 
ATOM      2  C   UNL     1       3.598  -4.119   1.622  0.00  0.00    +0.000 A 
ATOM      3  C   UNL     1       2.909  -4.473   0.467  0.00  0.00    +0.000 A 
ATOM      4  C   UNL     1       3.453  -5.350  -0.501  0.00  0.00    +0.000 A 
ATOM      5  C   UNL     1       4.754  -5.897  -0.252  0.00  0.00    +0.000 A 
ATOM      6  C   UNL     1       5.482  -6.715  -1.149  0.00  0.00    +0.000 A 
ATOM      7  C   UNL     1       6.708  -7.267  -0.793  0.00  0.00    +0.000 A 
ATOM      8  C   UNL     1       7.216  -6.954   0.446  0.00  0.00    +0.000 A 
ATOM      9  N   UNL     1       6.604  -6.128   1.314  0.00  0.00    +0.000 NA
ATOM     10  C   UNL     1       5.415  -5.603   0.969  0.00  0.00    +0.000 A 
ATOM     11  C   UNL     1       4.834  -4.722   1.863  0.00  0.00    +0.000 A 
ENDROOT
BRANCH   4  12
ATOM     12  C   UNL     1       2.639  -5.627  -1.717  0.00  0.00    +0.000 A 
ATOM     13  C   UNL     1       1.774  -6.734  -1.735  0.00  0.00    +0.000 A 
ATOM     14  C   UNL     1       1.037  -7.075  -2.869  0.00  0.00    +0.000 A 
ATOM     15  C   UNL     1       1.102  -6.294  -4.020  0.00  0.00    +0.000 A 
ATOM     16  C   UNL     1       1.931  -5.174  -4.022  0.00  0.00    +0.000 A 
ATOM     17  C   UNL     1       2.716  -4.869  -2.898  0.00  0.00    +0.000 A 
BRANCH  15  18
ATOM     18  O   UNL     1       0.412  -6.544  -5.180  0.00  0.00    +0.000 OA
BRANCH  18  19
ATOM     19  C   UNL     1       1.245  -6.669  -6.334  0.00  0.00    +0.000 C 
BRANCH  19  20
ATOM     20  C   UNL     1       1.913  -8.031  -6.401  0.00  0.00    +0.000 C 
BRANCH  20  21
ATOM     21  O   UNL     1       3.323  -7.802  -6.362  0.00  0.00    +0.000 OA
ATOM     22  C   UNL     1       3.919  -8.312  -5.181  0.00  0.00    +0.000 C 
ENDBRANCH  20  21
ENDBRANCH  19  20
ENDBRANCH  18  19
ENDBRANCH  15  18
ENDBRANCH   4  12
TORSDOF 5
ENDMDL
MODEL 3
REMARK VINA RESULT:    -0.001      5.507      8.328
REMARK INTER + INTRA:          -0.976
REMARK INTER:                   0.000
REMARK INTRA:                  -0.976
REMARK UNBOUND:                -0.975
REMARK  Name = 
REMARK  7 active torsions:
REMARK  status: ('A' for Active; 'I' for Inactive)
REMARK    1  A    between atoms: C_1  and  C_2
REMARK    2  A    between atoms: C_4  and  C_12
REMARK    3  A    between atoms: C_15  and  O_18
REMARK    4  A    between atoms: O_18  and  C_19
REMARK    5  A    between atoms: C_19  and  C_20
REMARK    6  A    between atoms: C_20  and  O_21
REMARK    7  A    between atoms: O_21  and  C_22
REMARK                            x       y       z     vdW  Elec       q    Type
REMARK                         _______ _______ _______ _____ _____    ______ ____
ROOT
ATOM      1  C   UNL     1       6.337   1.773   1.691  0.00  0.00    +0.000 C 
ATOM      2  C   UNL     1       6.318   0.323   1.313  0.00  0.00    +0.000 A 
ATOM      3  C   UNL     1       6.302  -0.672   2.285  0.00  0.00    +0.000 A 
ATOM      4  C   UNL     1       6.190  -2.045   1.962  0.00  0.00    +0.000 A 
ATOM      5  C   UNL     1       6.110  -2.402   0.576  0.00  0.00    +0.000 A 
ATOM      6  C   UNL     1       5.906  -3.712   0.080  0.00  0.00    +0.000 A 
ATOM      7  C   UNL     1       5.919  -3.979  -1.285  0.00  0.00    +0.000 A 
ATOM      8  C   UNL     1       6.091  -2.918  -2.144  0.00  0.00    +0.000 A 
ATOM      9  N   UNL     1       6.221  -1.644  -1.735  0.00  0.00    +0.000 NA
ATOM     10  C   UNL     1       6.215  -1.391  -0.414  0.00  0.00    +0.000 A 
ATOM     11  C   UNL     1       6.304  -0.065  -0.028  0.00  0.00    +0.000 A 
ENDROOT
BRANCH   4  12
ATOM     12  C   UNL     1       6.146  -3.018   3.088  0.00  0.00    +0.000 A 
ATOM     13  C   UNL     1       7.339  -3.601   3.549  0.00  0.00    +0.000 A 
ATOM     14  C   UNL     1       7.348  -4.564   4.557  0.00  0.00    +0.000 A 
ATOM     15  C   UNL     1       6.164  -4.952   5.179  0.00  0.00    +0.000 A 
ATOM     16  C   UNL     1       4.969  -4.371   4.762  0.00  0.00    +0.000 A 
ATOM     17  C   UNL     1       4.959  -3.445   3.705  0.00  0.00    +0.000 A 
BRANCH  15  18
ATOM     18  O   UNL     1       6.071  -5.885   6.181  0.00  0.00    +0.000 OA
BRANCH  18  19
ATOM     19  C   UNL     1       5.187  -6.967   5.887  0.00  0.00    +0.000 C 
BRANCH  19  20
ATOM     20  C   UNL     1       5.829  -7.982   4.959  0.00  0.00    +0.000 C 
BRANCH  20  21
ATOM     21  O   UNL     1       5.029  -8.024   3.775  0.00  0.00    +0.000 OA
ATOM     22  C   UNL     1       5.725  -7.542   2.638  0.00  0.00    +0.000 C 
ENDBRANCH  20  21
ENDBRANCH  19  20
ENDBRANCH  18  19
ENDBRANCH  15  18
ENDBRANCH   4  12
TORSDOF 5
ENDMDL
MODEL 4
REMARK VINA RESULT:    -0.001      8.019      9.843
REMARK INTER + INTRA:          -0.976
REMARK INTER:                   0.000
REMARK INTRA:                  -0.976
REMARK UNBOUND:                -0.975
REMARK  Name = 
REMARK  7 active torsions:
REMARK  status: ('A' for Active; 'I' for Inactive)
REMARK    1  A    between atoms: C_1  and  C_2
REMARK    2  A    between atoms: C_4  and  C_12
REMARK    3  A    between atoms: C_15  and  O_18
REMARK    4  A    between atoms: O_18  and  C_19
REMARK    5  A    between atoms: C_19  and  C_20
REMARK    6  A    between atoms: C_20  and  O_21
REMARK    7  A    between atoms: O_21  and  C_22
REMARK                            x       y       z     vdW  Elec       q    Type
REMARK                         _______ _______ _______ _____ _____    ______ ____
ROOT
ATOM      1  C   UNL     1      -2.304  -4.288  -0.831  0.00  0.00    +0.000 C 
ATOM      2  C   UNL     1      -1.860  -4.079  -2.247  0.00  0.00    +0.000 A 
ATOM      3  C   UNL     1      -0.553  -3.707  -2.541  0.00  0.00    +0.000 A 
ATOM      4  C   UNL     1      -0.078  -3.594  -3.869  0.00  0.00    +0.000 A 
ATOM      5  C   UNL     1      -1.000  -3.857  -4.934  0.00  0.00    +0.000 A 
ATOM      6  C   UNL     1      -0.674  -3.877  -6.311  0.00  0.00    +0.000 A 
ATOM      7  C   UNL     1      -1.651  -4.066  -7.284  0.00  0.00    +0.000 A 
ATOM      8  C   UNL     1      -2.942  -4.279  -6.862  0.00  0.00    +0.000 A 
ATOM      9  N   UNL     1      -3.301  -4.340  -5.567  0.00  0.00    +0.000 NA
ATOM     10  C   UNL     1      -2.355  -4.149  -4.630  0.00  0.00    +0.000 A 
ATOM     11  C   UNL     1      -2.748  -4.264  -3.308  0.00  0.00    +0.000 A 
ENDROOT
BRANCH   4  12
ATOM     12  C   UNL     1       1.352  -3.224  -4.063  0.00  0.00    +0.000 A 
ATOM     13  C   UNL     1       1.706  -1.873  -4.210  0.00  0.00    +0.000 A 
ATOM     14  C   UNL     1       3.020  -1.477  -4.456  0.00  0.00    +0.000 A 
ATOM     15  C   UNL     1       4.045  -2.419  -4.520  0.00  0.00    +0.000 A 
ATOM     16  C   UNL     1       3.728  -3.764  -4.350  0.00  0.00    +0.000 A 
ATOM     17  C   UNL     1       2.394  -4.162  -4.162  0.00  0.00    +0.000 A 
BRANCH  15  18
ATOM     18  O   UNL     1       5.366  -2.128  -4.751  0.00  0.00    +0.000 OA
BRANCH  18  19
ATOM     19  C   UNL     1       5.922  -2.811  -5.876  0.00  0.00    +0.000 C 
BRANCH  19  20
ATOM     20  C   UNL     1       5.517  -2.159  -7.186  0.00  0.00    +0.000 C 
BRANCH  20  21
ATOM     21  O   UNL     1       4.791  -3.142  -7.928  0.00  0.00    +0.000 OA
ATOM     22  C   UNL     1       3.430  -2.785  -8.104  0.00  0.00    +0.000 C 
ENDBRANCH  20  21
ENDBRANCH  19  20
ENDBRANCH  18  19
ENDBRANCH  15  18
ENDBRANCH   4  12
TORSDOF 5
ENDMDL
MODEL 5
REMARK VINA RESULT:    -0.001      4.709      6.939
REMARK INTER + INTRA:          -0.976
REMARK INTER:                   0.000
REMARK INTRA:                  -0.976
REMARK UNBOUND:                -0.975
REMARK  Name = 
REMARK  7 active torsions:
REMARK  status: ('A' for Active; 'I' for Inactive)
REMARK    1  A    between atoms: C_1  and  C_2
REMARK    2  A    between atoms: C_4  and  C_12
REMARK    3  A    between atoms: C_15  and  O_18
REMARK    4  A    between atoms: O_18  and  C_19
REMARK    5  A    between atoms: C_19  and  C_20
REMARK    6  A    between atoms: C_20  and  O_21
REMARK    7  A    between atoms: O_21  and  C_22
REMARK                            x       y       z     vdW  Elec       q    Type
REMARK                         _______ _______ _______ _____ _____    ______ ____
ROOT
ATOM      1  C   UNL     1       2.211   5.619   7.025  0.00  0.00    +0.000 C 
ATOM      2  C   UNL     1       1.184   5.569   5.936  0.00  0.00    +0.000 A 
ATOM      3  C   UNL     1       1.393   4.816   4.785  0.00  0.00    +0.000 A 
ATOM      4  C   UNL     1       0.405   4.672   3.783  0.00  0.00    +0.000 A 
ATOM      5  C   UNL     1      -0.842   5.351   3.971  0.00  0.00    +0.000 A 
ATOM      6  C   UNL     1      -1.967   5.247   3.117  0.00  0.00    +0.000 A 
ATOM      7  C   UNL     1      -3.113   6.004   3.334  0.00  0.00    +0.000 A 
ATOM      8  C   UNL     1      -3.138   6.827   4.436  0.00  0.00    +0.000 A 
ATOM      9  N   UNL     1      -2.129   6.917   5.320  0.00  0.00    +0.000 NA
ATOM     10  C   UNL     1      -1.019   6.189   5.102  0.00  0.00    +0.000 A 
ATOM     11  C   UNL     1      -0.018   6.269   6.054  0.00  0.00    +0.000 A 
ENDROOT
BRANCH   4  12
ATOM     12  C   UNL     1       0.730   3.810   2.612  0.00  0.00    +0.000 A 
ATOM     13  C   UNL     1       1.291   4.386   1.461  0.00  0.00    +0.000 A 
ATOM     14  C   UNL     1       1.555   3.637   0.315  0.00  0.00    +0.000 A 
ATOM     15  C   UNL     1       1.309   2.266   0.290  0.00  0.00    +0.000 A 
ATOM     16  C   UNL     1       0.778   1.662   1.427  0.00  0.00    +0.000 A 
ATOM     17  C   UNL     1       0.458   2.433   2.558  0.00  0.00    +0.000 A 
BRANCH  15  18
ATOM     18  O   UNL     1       1.540   1.445  -0.785  0.00  0.00    +0.000 OA
BRANCH  18  19
ATOM     19  C   UNL     1       0.388   0.723  -1.222  0.00  0.00    +0.000 C 
BRANCH  19  20
ATOM     20  C   UNL     1      -0.542   1.593  -2.047  0.00  0.00    +0.000 C 
BRANCH  20  21
ATOM     21  O   UNL     1      -1.790   1.639  -1.352  0.00  0.00    +0.000 OA
ATOM     22  C   UNL     1      -2.091   2.938  -0.871  0.00  0.00    +0.000 C 
ENDBRANCH  20  21
ENDBRANCH  19  20
ENDBRANCH  18  19
ENDBRANCH  15  18
ENDBRANCH   4  12
TORSDOF 5
ENDMDL
MODEL 6
REMARK VINA RESULT:    -0.001      3.659      5.944
REMARK INTER + INTRA:          -0.976
REMARK INTER:                   0.000
REMARK INTRA:                  -0.976
REMARK UNBOUND:                -0.975
REMARK  Name = 
REMARK  7 active torsions:
REMARK  status: ('A' for Active; 'I' for Inactive)
REMARK    1  A    between atoms: C_1  and  C_2
REMARK    2  A    between atoms: C_4  and  C_12
REMARK    3  A    between atoms: C_15  and  O_18
REMARK    4  A    between atoms: O_18  and  C_19
REMARK    5  A    between atoms: C_19  and  C_20
REMARK    6  A    between atoms: C_20  and  O_21
REMARK    7  A    between atoms: O_21  and  C_22
REMARK                            x       y       z     vdW  Elec       q    Type
REMARK                         _______ _______ _______ _____ _____    ______ ____
ROOT
ATOM      1  C   UNL     1       3.460   4.333   0.348  0.00  0.00    +0.000 C 
ATOM      2  C   UNL     1       3.229   2.932   0.825  0.00  0.00    +0.000 A 
ATOM      3  C   UNL     1       2.098   2.603   1.565  0.00  0.00    +0.000 A 
ATOM      4  C   UNL     1       1.804   1.273   1.949  0.00  0.00    +0.000 A 
ATOM      5  C   UNL     1       2.729   0.246   1.568  0.00  0.00    +0.000 A 
ATOM      6  C   UNL     1       2.548  -1.140   1.790  0.00  0.00    +0.000 A 
ATOM      7  C   UNL     1       3.535  -2.061   1.456  0.00  0.00    +0.000 A 
ATOM      8  C   UNL     1       4.678  -1.586   0.857  0.00  0.00    +0.000 A 
ATOM      9  N   UNL     1       4.878  -0.290   0.558  0.00  0.00    +0.000 NA
ATOM     10  C   UNL     1       3.924   0.598   0.891  0.00  0.00    +0.000 A 
ATOM     11  C   UNL     1       4.140   1.916   0.528  0.00  0.00    +0.000 A 
ENDROOT
BRANCH   4  12
ATOM     12  C   UNL     1       0.545   1.036   2.709  0.00  0.00    +0.000 A 
ATOM     13  C   UNL     1       0.569   1.048   4.114  0.00  0.00    +0.000 A 
ATOM     14  C   UNL     1      -0.567   0.770   4.873  0.00  0.00    +0.000 A 
ATOM     15  C   UNL     1      -1.788   0.511   4.255  0.00  0.00    +0.000 A 
ATOM     16  C   UNL     1      -1.849   0.520   2.864  0.00  0.00    +0.000 A 
ATOM     17  C   UNL     1      -0.688   0.742   2.104  0.00  0.00    +0.000 A 
BRANCH  15  18
ATOM     18  O   UNL     1      -2.959   0.233   4.915  0.00  0.00    +0.000 OA
BRANCH  18  19
ATOM     19  C   UNL     1      -3.556  -1.009   4.538  0.00  0.00    +0.000 C 
BRANCH  19  20
ATOM     20  C   UNL     1      -2.867  -2.188   5.201  0.00  0.00    +0.000 C 
BRANCH  20  21
ATOM     21  O   UNL     1      -2.347  -3.006   4.150  0.00  0.00    +0.000 OA
ATOM     22  C   UNL     1      -0.930  -3.040   4.145  0.00  0.00    +0.000 C 
ENDBRANCH  20  21
ENDBRANCH  19  20
ENDBRANCH  18  19
ENDBRANCH  15  18
ENDBRANCH   4  12
TORSDOF 5
ENDMDL
MODEL 7
REMARK VINA RESULT:    -0.001      9.670     12.093
REMARK INTER + INTRA:          -0.976
REMARK INTER:                   0.000
REMARK INTRA:                  -0.976
REMARK UNBOUND:                -0.975
REMARK  Name = 
REMARK  7 active torsions:
REMARK  status: ('A' for Active; 'I' for Inactive)
REMARK    1  A    between atoms: C_1  and  C_2
REMARK    2  A    between atoms: C_4  and  C_12
REMARK    3  A    between atoms: C_15  and  O_18
REMARK    4  A    between atoms: O_18  and  C_19
REMARK    5  A    between atoms: C_19  and  C_20
REMARK    6  A    between atoms: C_20  and  O_21
REMARK    7  A    between atoms: O_21  and  C_22
REMARK                            x       y       z     vdW  Elec       q    Type
REMARK                         _______ _______ _______ _____ _____    ______ ____
ROOT
ATOM      1  C   UNL     1      -4.686   4.428   2.259  0.00  0.00    +0.000 C 
ATOM      2  C   UNL     1      -5.743   4.065   1.261  0.00  0.00    +0.000 A 
ATOM      3  C   UNL     1      -5.544   4.268  -0.100  0.00  0.00    +0.000 A 
ATOM      4  C   UNL     1      -6.482   3.849  -1.073  0.00  0.00    +0.000 A 
ATOM      5  C   UNL     1      -7.682   3.214  -0.616  0.00  0.00    +0.000 A 
ATOM      6  C   UNL     1      -8.680   2.657  -1.451  0.00  0.00    +0.000 A 
ATOM      7  C   UNL     1      -9.853   2.126  -0.922  0.00  0.00    +0.000 A 
ATOM      8  C   UNL     1      -9.992   2.118   0.447  0.00  0.00    +0.000 A 
ATOM      9  N   UNL     1      -9.049   2.570   1.293  0.00  0.00    +0.000 NA
ATOM     10  C   UNL     1      -7.921   3.089   0.777  0.00  0.00    +0.000 A 
ATOM     11  C   UNL     1      -6.952   3.502   1.674  0.00  0.00    +0.000 A 
ENDROOT
BRANCH   4  12
ATOM     12  C   UNL     1      -6.145   4.087  -2.505  0.00  0.00    +0.000 A 
ATOM     13  C   UNL     1      -6.572   5.270  -3.131  0.00  0.00    +0.000 A 
ATOM     14  C   UNL     1      -6.338   5.513  -4.484  0.00  0.00    +0.000 A 
ATOM     15  C   UNL     1      -5.625   4.600  -5.257  0.00  0.00    +0.000 A 
ATOM     16  C   UNL     1      -5.165   3.431  -4.656  0.00  0.00    +0.000 A 
ATOM     17  C   UNL     1      -5.455   3.163  -3.308  0.00  0.00    +0.000 A 
BRANCH  15  18
ATOM     18  O   UNL     1      -5.340   4.753  -6.591  0.00  0.00    +0.000 OA
BRANCH  18  19
ATOM     19  C   UNL     1      -5.803   3.678  -7.410  0.00  0.00    +0.000 C 
BRANCH  19  20
ATOM     20  C   UNL     1      -7.292   3.782  -7.685  0.00  0.00    +0.000 C 
BRANCH  20  21
ATOM     21  O   UNL     1      -7.895   2.603  -7.147  0.00  0.00    +0.000 OA
ATOM     22  C   UNL     1      -8.753   2.888  -6.054  0.00  0.00    +0.000 C 
ENDBRANCH  20  21
ENDBRANCH  19  20
ENDBRANCH  18  19
ENDBRANCH  15  18
ENDBRANCH   4  12
TORSDOF 5
ENDMDL
MODEL 8
REMARK VINA RESULT:    -0.001      4.295      6.684
REMARK INTER + INTRA:          -0.976
REMARK INTER:                   0.000
REMARK INTRA:                  -0.976
REMARK UNBOUND:                -0.975
REMARK  Name = 
REMARK  7 active torsions:
REMARK  status: ('A' for Active; 'I' for Inactive)
REMARK    1  A    between atoms: C_1  and  C_2
REMARK    2  A    between atoms: C_4  and  C_12
REMARK    3  A    between atoms: C_15  and  O_18
REMARK    4  A    between atoms: O_18  and  C_19
REMARK    5  A    between atoms: C_19  and  C_20
REMARK    6  A    between atoms: C_20  and  O_21
REMARK    7  A    between atoms: O_21  and  C_22
REMARK                            x       y       z     vdW  Elec       q    Type
REMARK                         _______ _______ _______ _____ _____    ______ ____
ROOT
ATOM      1  C   UNL     1       4.562  -5.822  -4.765  0.00  0.00    +0.000 C 
ATOM      2  C   UNL     1       4.897  -5.217  -3.436  0.00  0.00    +0.000 A 
ATOM      3  C   UNL     1       5.027  -3.841  -3.286  0.00  0.00    +0.000 A 
ATOM      4  C   UNL     1       5.249  -3.234  -2.027  0.00  0.00    +0.000 A 
ATOM      5  C   UNL     1       5.360  -4.088  -0.882  0.00  0.00    +0.000 A 
ATOM      6  C   UNL     1       5.492  -3.648   0.456  0.00  0.00    +0.000 A 
ATOM      7  C   UNL     1       5.672  -4.550   1.501  0.00  0.00    +0.000 A 
ATOM      8  C   UNL     1       5.671  -5.891   1.196  0.00  0.00    +0.000 A 
ATOM      9  N   UNL     1       5.480  -6.371  -0.045  0.00  0.00    +0.000 NA
ATOM     10  C   UNL     1       5.315  -5.496  -1.053  0.00  0.00    +0.000 A 
ATOM     11  C   UNL     1       5.075  -6.023  -2.310  0.00  0.00    +0.000 A 
ENDROOT
BRANCH   4  12
ATOM     12  C   UNL     1       5.335  -1.747  -1.983  0.00  0.00    +0.000 A 
ATOM     13  C   UNL     1       6.587  -1.121  -2.095  0.00  0.00    +0.000 A 
ATOM     14  C   UNL     1       6.731   0.263  -1.997  0.00  0.00    +0.000 A 
ATOM     15  C   UNL     1       5.618   1.082  -1.826  0.00  0.00    +0.000 A 
ATOM     16  C   UNL     1       4.360   0.491  -1.740  0.00  0.00    +0.000 A 
ATOM     17  C   UNL     1       4.227  -0.907  -1.780  0.00  0.00    +0.000 A 
BRANCH  15  18
ATOM     18  O   UNL     1       5.657   2.450  -1.725  0.00  0.00    +0.000 OA
BRANCH  18  19
ATOM     19  C   UNL     1       5.062   2.960  -0.531  0.00  0.00    +0.000 C 
BRANCH  19  20
ATOM     20  C   UNL     1       5.984   2.814   0.665  0.00  0.00    +0.000 C 
BRANCH  20  21
ATOM     21  O   UNL     1       5.308   1.979   1.608  0.00  0.00    +0.000 OA
ATOM     22  C   UNL     1       5.966   0.737   1.796  0.00  0.00    +0.000 C 
ENDBRANCH  20  21
ENDBRANCH  19  20
ENDBRANCH  18  19
ENDBRANCH  15  18
ENDBRANCH   4  12
TORSDOF 5
ENDMDL
MODEL 9
REMARK VINA RESULT:     0.000      7.681      9.664
REMARK INTER + INTRA:          -0.975
REMARK INTER:                   0.000
REMARK INTRA:                  -0.975
REMARK UNBOUND:                -0.975
REMARK  Name = 
REMARK  7 active torsions:
REMARK  status: ('A' for Active; 'I' for Inactive)
REMARK    1  A    between atoms: C_1  and  C_2
REMARK    2  A    between atoms: C_4  and  C_12
REMARK    3  A    between atoms: C_15  and  O_18
REMARK    4  A    between atoms: O_18  and  C_19
REMARK    5  A    between atoms: C_19  and  C_20
REMARK    6  A    between atoms: C_20  and  O_21
REMARK    7  A    between atoms: O_21  and  C_22
REMARK                            x       y       z     vdW  Elec       q    Type
REMARK                         _______ _______ _______ _____ _____    ______ ____
ROOT
ATOM      1  C   UNL     1       7.610   3.444  -0.425  0.00  0.00    +0.000 C 
ATOM      2  C   UNL     1       7.354   2.949  -1.816  0.00  0.00    +0.000 A 
ATOM      3  C   UNL     1       7.232   1.589  -2.082  0.00  0.00    +0.000 A 
ATOM      4  C   UNL     1       6.897   1.095  -3.365  0.00  0.00    +0.000 A 
ATOM      5  C   UNL     1       6.700   2.047  -4.418  0.00  0.00    +0.000 A 
ATOM      6  C   UNL     1       6.276   1.736  -5.732  0.00  0.00    +0.000 A 
ATOM      7  C   UNL     1       6.185   2.717  -6.715  0.00  0.00    +0.000 A 
ATOM      8  C   UNL     1       6.477   4.012  -6.355  0.00  0.00    +0.000 A 
ATOM      9  N   UNL     1       6.817   4.379  -5.107  0.00  0.00    +0.000 NA
ATOM     10  C   UNL     1       6.912   3.427  -4.163  0.00  0.00    +0.000 A 
ATOM     11  C   UNL     1       7.219   3.843  -2.879  0.00  0.00    +0.000 A 
ENDROOT
BRANCH   4  12
ATOM     12  C   UNL     1       6.758  -0.380  -3.523  0.00  0.00    +0.000 A 
ATOM     13  C   UNL     1       7.868  -1.143  -3.921  0.00  0.00    +0.000 A 
ATOM     14  C   UNL     1       7.777  -2.516  -4.145  0.00  0.00    +0.000 A 
ATOM     15  C   UNL     1       6.577  -3.192  -3.934  0.00  0.00    +0.000 A 
ATOM     16  C   UNL     1       5.466  -2.465  -3.512  0.00  0.00    +0.000 A 
ATOM     17  C   UNL     1       5.549  -1.073  -3.346  0.00  0.00    +0.000 A 
BRANCH  15  18
ATOM     18  O   UNL     1       6.390  -4.539  -4.121  0.00  0.00    +0.000 OA
BRANCH  18  19
ATOM     19  C   UNL     1       5.338  -4.857  -5.033  0.00  0.00    +0.000 C 
BRANCH  19  20
ATOM     20  C   UNL     1       5.774  -4.684  -6.477  0.00  0.00    +0.000 C 
BRANCH  20  21
ATOM     21  O   UNL     1       4.921  -3.689  -7.049  0.00  0.00    +0.000 OA
ATOM     22  C   UNL     1       5.628  -2.511  -7.399  0.00  0.00    +0.000 C 
ENDBRANCH  20  21
ENDBRANCH  19  20
ENDBRANCH  18  19
ENDBRANCH  15  18
ENDBRANCH   4  12
TORSDOF 5
ENDMDL
