MODEL 1
REMARK VINA RESULT:     0.000      0.000      0.000
REMARK INTER + INTRA:          -0.540
REMARK INTER:                   0.000
REMARK INTRA:                  -0.540
REMARK UNBOUND:                -0.540
REMARK  Name = 
REMARK  3 active torsions:
REMARK  status: ('A' for Active; 'I' for Inactive)
REMARK    1  A    between atoms: C_4  and  N_7
REMARK    2  A    between atoms: C_9  and  C_12
REMARK    3  A    between atoms: C_16  and  C_18
REMARK                            x       y       z     vdW  Elec       q    Type
REMARK                         _______ _______ _______ _____ _____    ______ ____
ROOT
ATOM      1  N   UNL     1      -1.518   6.770  -1.159  0.00  0.00    +0.000 N 
ATOM      2  C   UNL     1      -2.464   5.804  -1.428  0.00  0.00    +0.000 A 
ATOM      3  C   UNL     1      -3.018   6.100  -2.653  0.00  0.00    +0.000 A 
ATOM      4  C   UNL     1      -2.321   7.249  -3.073  0.00  0.00    +0.000 A 
ATOM      5  N   UNL     1      -1.418   7.660  -2.183  0.00  0.00    +0.000 NA
ENDROOT
BRANCH   1   9
ATOM      6  C   UNL     1       0.789   7.272   2.342  0.00  0.00    +0.000 A 
ATOM      7  C   UNL     1      -0.103   6.204   2.246  0.00  0.00    +0.000 A 
ATOM      8  C   UNL     1      -0.861   6.021   1.087  0.00  0.00    +0.000 A 
ATOM      9  C   UNL     1      -0.728   6.914   0.015  0.00  0.00    +0.000 A 
ATOM     10  C   UNL     1       0.185   7.974   0.110  0.00  0.00    +0.000 A 
ATOM     11  C   UNL     1       0.936   8.153   1.273  0.00  0.00    +0.000 A 
ENDBRANCH   1   9
BRANCH   3  12
ATOM     12  C   UNL     1      -4.116   5.388  -3.275  0.00  0.00    +0.000 A 
ATOM     13  C   UNL     1      -4.651   5.843  -4.485  0.00  0.00    +0.000 A 
ATOM     14  C   UNL     1      -5.778   5.231  -5.032  0.00  0.00    +0.000 A 
ATOM     15  C   UNL     1      -6.386   4.164  -4.368  0.00  0.00    +0.000 A 
ATOM     16  C   UNL     1      -5.869   3.688  -3.155  0.00  0.00    +0.000 A 
ATOM     17  C   UNL     1      -4.717   4.298  -2.630  0.00  0.00    +0.000 A 
BRANCH  16  18
ATOM     18  C   UNL     1      -6.530   2.635  -2.391  0.00  0.00    +0.000 A 
ATOM     19  N   UNL     1      -7.550   1.869  -2.735  0.00  0.00    +0.000 NA
ATOM     20  C   UNL     1      -7.677   0.994  -1.688  0.00  0.00    +0.000 A 
ATOM     21  C   UNL     1      -6.732   1.270  -0.733  0.00  0.00    +0.000 A 
ATOM     22  O   UNL     1      -5.992   2.326  -1.167  0.00  0.00    +0.000 OA
ENDBRANCH  16  18
ENDBRANCH   3  12
TORSDOF 3
ENDMDL
MODEL 2
REMARK VINA RESULT:     0.000      8.385      9.602
REMARK INTER + INTRA:          -0.540
REMARK INTER:                   0.000
REMARK INTRA:                  -0.540
REMARK UNBOUND:                -0.540
REMARK  Name = 
REMARK  3 active torsions:
REMARK  status: ('A' for Active; 'I' for Inactive)
REMARK    1  A    between atoms: C_4  and  N_7
REMARK    2  A    between atoms: C_9  and  C_12
REMARK    3  A    between atoms: C_16  and  C_18
REMARK                            x       y       z     vdW  Elec       q    Type
REMARK                         _______ _______ _______ _____ _____    ______ ____
ROOT
ATOM      1  N   UNL     1       2.888   1.242  -3.151  0.00  0.00    +0.000 N 
ATOM      2  C   UNL     1       2.525   0.369  -2.147  0.00  0.00    +0.000 A 
ATOM      3  C   UNL     1       3.543  -0.547  -2.010  0.00  0.00    +0.000 A 
ATOM      4  C   UNL     1       4.502  -0.133  -2.954  0.00  0.00    +0.000 A 
ATOM      5  N   UNL     1       4.118   0.940  -3.645  0.00  0.00    +0.000 NA
ENDROOT
BRANCH   1   9
ATOM      6  C   UNL     1       0.633   4.401  -4.814  0.00  0.00    +0.000 A 
ATOM      7  C   UNL     1       0.100   3.642  -3.772  0.00  0.00    +0.000 A 
ATOM      8  C   UNL     1       0.843   2.603  -3.206  0.00  0.00    +0.000 A 
ATOM      9  C   UNL     1       2.128   2.319  -3.686  0.00  0.00    +0.000 A 
ATOM     10  C   UNL     1       2.666   3.098  -4.721  0.00  0.00    +0.000 A 
ATOM     11  C   UNL     1       1.916   4.132  -5.285  0.00  0.00    +0.000 A 
ENDBRANCH   1   9
BRANCH   3  12
ATOM     12  C   UNL     1       3.531  -1.694  -1.125  0.00  0.00    +0.000 A 
ATOM     13  C   UNL     1       4.593  -2.605  -1.143  0.00  0.00    +0.000 A 
ATOM     14  C   UNL     1       4.536  -3.769  -0.377  0.00  0.00    +0.000 A 
ATOM     15  C   UNL     1       3.412  -4.036   0.407  0.00  0.00    +0.000 A 
ATOM     16  C   UNL     1       2.336  -3.138   0.444  0.00  0.00    +0.000 A 
ATOM     17  C   UNL     1       2.419  -1.958  -0.312  0.00  0.00    +0.000 A 
BRANCH  16  18
ATOM     18  C   UNL     1       1.110  -3.428   1.181  0.00  0.00    +0.000 A 
ATOM     19  N   UNL     1       0.856  -4.415   2.023  0.00  0.00    +0.000 NA
ATOM     20  C   UNL     1      -0.399  -4.134   2.496  0.00  0.00    +0.000 A 
ATOM     21  C   UNL     1      -0.872  -2.987   1.910  0.00  0.00    +0.000 A 
ATOM     22  O   UNL     1       0.084  -2.526   1.057  0.00  0.00    +0.000 OA
ENDBRANCH  16  18
ENDBRANCH   3  12
TORSDOF 3
ENDMDL
MODEL 3
REMARK VINA RESULT:     0.000      8.450     12.249
REMARK INTER + INTRA:          -0.540
REMARK INTER:                   0.000
REMARK INTRA:                  -0.540
REMARK UNBOUND:                -0.540
REMARK  Name = 
REMARK  3 active torsions:
REMARK  status: ('A' for Active; 'I' for Inactive)
REMARK    1  A    between atoms: C_4  and  N_7
REMARK    2  A    between atoms: C_9  and  C_12
REMARK    3  A    between atoms: C_16  and  C_18
REMARK                            x       y       z     vdW  Elec       q    Type
REMARK                         _______ _______ _______ _____ _____    ______ ____
ROOT
ATOM      1  N   UNL     1      -3.398  -7.498   0.515  0.00  0.00    +0.000 N 
ATOM      2  C   UNL     1      -4.307  -6.461   0.498  0.00  0.00    +0.000 A 
ATOM      3  C   UNL     1      -5.565  -7.014   0.576  0.00  0.00    +0.000 A 
ATOM      4  C   UNL     1      -5.322  -8.398   0.669  0.00  0.00    +0.000 A 
ATOM      5  N   UNL     1      -4.024  -8.699   0.634  0.00  0.00    +0.000 NA
ENDROOT
BRANCH   1   9
ATOM      6  C   UNL     1       0.799  -7.307   0.093  0.00  0.00    +0.000 A 
ATOM      7  C   UNL     1       0.046  -6.132   0.080  0.00  0.00    +0.000 A 
ATOM      8  C   UNL     1      -1.342  -6.184   0.232  0.00  0.00    +0.000 A 
ATOM      9  C   UNL     1      -1.983  -7.418   0.397  0.00  0.00    +0.000 A 
ATOM     10  C   UNL     1      -1.219  -8.594   0.427  0.00  0.00    +0.000 A 
ATOM     11  C   UNL     1       0.167  -8.536   0.271  0.00  0.00    +0.000 A 
ENDBRANCH   1   9
BRANCH   3  12
ATOM     12  C   UNL     1      -6.813  -6.283   0.499  0.00  0.00    +0.000 A 
ATOM     13  C   UNL     1      -8.031  -6.973   0.500  0.00  0.00    +0.000 A 
ATOM     14  C   UNL     1      -9.230  -6.285   0.314  0.00  0.00    +0.000 A 
ATOM     15  C   UNL     1      -9.221  -4.903   0.117  0.00  0.00    +0.000 A 
ATOM     16  C   UNL     1      -8.014  -4.189   0.114  0.00  0.00    +0.000 A 
ATOM     17  C   UNL     1      -6.817  -4.892   0.329  0.00  0.00    +0.000 A 
BRANCH  16  18
ATOM     18  C   UNL     1      -7.961  -2.760  -0.178  0.00  0.00    +0.000 A 
ATOM     19  N   UNL     1      -8.953  -1.898  -0.311  0.00  0.00    +0.000 NA
ATOM     20  C   UNL     1      -8.325  -0.690  -0.468  0.00  0.00    +0.000 A 
ATOM     21  C   UNL     1      -6.965  -0.864  -0.438  0.00  0.00    +0.000 A 
ATOM     22  O   UNL     1      -6.715  -2.190  -0.259  0.00  0.00    +0.000 OA
ENDBRANCH  16  18
ENDBRANCH   3  12
TORSDOF 3
ENDMDL
MODEL 4
REMARK VINA RESULT:     0.000      6.183      8.894
REMARK INTER + INTRA:          -0.540
REMARK INTER:                   0.000
REMARK INTRA:                  -0.540
REMARK UNBOUND:                -0.540
REMARK  Name = 
REMARK  3 active torsions:
REMARK  status: ('A' for Active; 'I' for Inactive)
REMARK    1  A    between atoms: C_4  and  N_7
REMARK    2  A    between atoms: C_9  and  C_12
REMARK    3  A    between atoms: C_16  and  C_18
REMARK                            x       y       z     vdW  Elec       q    Type
REMARK                         _______ _______ _______ _____ _____    ______ ____
ROOT
ATOM      1  N   UNL     1      -0.508   2.915  -0.350  0.00  0.00    +0.000 N 
ATOM      2  C   UNL     1      -0.248   1.883   0.527  0.00  0.00    +0.000 A 
ATOM      3  C   UNL     1       0.347   2.430   1.641  0.00  0.00    +0.000 A 
ATOM      4  C   UNL     1       0.379   3.811   1.367  0.00  0.00    +0.000 A 
ATOM      5  N   UNL     1      -0.132   4.113   0.173  0.00  0.00    +0.000 NA
ENDROOT
BRANCH   1   9
ATOM      6  C   UNL     1      -2.081   2.691  -4.262  0.00  0.00    +0.000 A 
ATOM      7  C   UNL     1      -1.918   1.526  -3.513  0.00  0.00    +0.000 A 
ATOM      8  C   UNL     1      -1.411   1.591  -2.212  0.00  0.00    +0.000 A 
ATOM      9  C   UNL     1      -1.063   2.829  -1.658  0.00  0.00    +0.000 A 
ATOM     10  C   UNL     1      -1.247   3.998  -2.410  0.00  0.00    +0.000 A 
ATOM     11  C   UNL     1      -1.750   3.926  -3.709  0.00  0.00    +0.000 A 
ENDBRANCH   1   9
BRANCH   3  12
ATOM     12  C   UNL     1       0.863   1.686   2.771  0.00  0.00    +0.000 A 
ATOM     13  C   UNL     1       1.529   2.353   3.806  0.00  0.00    +0.000 A 
ATOM     14  C   UNL     1       2.127   1.632   4.840  0.00  0.00    +0.000 A 
ATOM     15  C   UNL     1       2.071   0.238   4.843  0.00  0.00    +0.000 A 
ATOM     16  C   UNL     1       1.408  -0.454   3.819  0.00  0.00    +0.000 A 
ATOM     17  C   UNL     1       0.788   0.286   2.799  0.00  0.00    +0.000 A 
BRANCH  16  18
ATOM     18  C   UNL     1       1.407  -1.912   3.745  0.00  0.00    +0.000 A 
ATOM     19  N   UNL     1       1.836  -2.794   4.631  0.00  0.00    +0.000 NA
ATOM     20  C   UNL     1       1.491  -4.004   4.089  0.00  0.00    +0.000 A 
ATOM     21  C   UNL     1       0.873  -3.815   2.880  0.00  0.00    +0.000 A 
ATOM     22  O   UNL     1       0.818  -2.476   2.641  0.00  0.00    +0.000 OA
ENDBRANCH  16  18
ENDBRANCH   3  12
TORSDOF 3
ENDMDL
MODEL 5
REMARK VINA RESULT:     0.000      9.551     12.191
REMARK INTER + INTRA:          -0.540
REMARK INTER:                   0.000
REMARK INTRA:                  -0.540
REMARK UNBOUND:                -0.540
REMARK  Name = 
REMARK  3 active torsions:
REMARK  status: ('A' for Active; 'I' for Inactive)
REMARK    1  A    between atoms: C_4  and  N_7
REMARK    2  A    between atoms: C_9  and  C_12
REMARK    3  A    between atoms: C_16  and  C_18
REMARK                            x       y       z     vdW  Elec       q    Type
REMARK                         _______ _______ _______ _____ _____    ______ ____
ROOT
ATOM      1  N   UNL     1       1.708  -1.672   0.188  0.00  0.00    +0.000 N 
ATOM      2  C   UNL     1       2.973  -1.138   0.309  0.00  0.00    +0.000 A 
ATOM      3  C   UNL     1       3.290  -0.553  -0.896  0.00  0.00    +0.000 A 
ATOM      4  C   UNL     1       2.140  -0.752  -1.684  0.00  0.00    +0.000 A 
ATOM      5  N   UNL     1       1.184  -1.423  -1.042  0.00  0.00    +0.000 NA
ENDROOT
BRANCH   1   9
ATOM      6  C   UNL     1      -0.443  -3.970   3.003  0.00  0.00    +0.000 A 
ATOM      7  C   UNL     1       0.825  -3.488   3.325  0.00  0.00    +0.000 A 
ATOM      8  C   UNL     1       1.540  -2.716   2.405  0.00  0.00    +0.000 A 
ATOM      9  C   UNL     1       0.983  -2.424   1.154  0.00  0.00    +0.000 A 
ATOM     10  C   UNL     1      -0.301  -2.895   0.843  0.00  0.00    +0.000 A 
ATOM     11  C   UNL     1      -1.007  -3.670   1.764  0.00  0.00    +0.000 A 
ENDBRANCH   1   9
BRANCH   3  12
ATOM     12  C   UNL     1       4.565   0.049  -1.231  0.00  0.00    +0.000 A 
ATOM     13  C   UNL     1       4.794   0.531  -2.525  0.00  0.00    +0.000 A 
ATOM     14  C   UNL     1       6.054   1.009  -2.885  0.00  0.00    +0.000 A 
ATOM     15  C   UNL     1       7.097   1.000  -1.958  0.00  0.00    +0.000 A 
ATOM     16  C   UNL     1       6.892   0.524  -0.655  0.00  0.00    +0.000 A 
ATOM     17  C   UNL     1       5.611   0.071  -0.299  0.00  0.00    +0.000 A 
BRANCH  16  18
ATOM     18  C   UNL     1       7.981   0.418   0.310  0.00  0.00    +0.000 A 
ATOM     19  N   UNL     1       9.221   0.866   0.223  0.00  0.00    +0.000 NA
ATOM     20  C   UNL     1       9.764   0.584   1.450  0.00  0.00    +0.000 A 
ATOM     21  C   UNL     1       8.833  -0.042   2.238  0.00  0.00    +0.000 A 
ATOM     22  O   UNL     1       7.684  -0.163   1.518  0.00  0.00    +0.000 OA
ENDBRANCH  16  18
ENDBRANCH   3  12
TORSDOF 3
ENDMDL
MODEL 6
REMARK VINA RESULT:     0.000      4.310      8.364
REMARK INTER + INTRA:          -0.540
REMARK INTER:                   0.000
REMARK INTRA:                  -0.540
REMARK UNBOUND:                -0.540
REMARK  Name = 
REMARK  3 active torsions:
REMARK  status: ('A' for Active; 'I' for Inactive)
REMARK    1  A    between atoms: C_4  and  N_7
REMARK    2  A    between atoms: C_9  and  C_12
REMARK    3  A    between atoms: C_16  and  C_18
REMARK                            x       y       z     vdW  Elec       q    Type
REMARK                         _______ _______ _______ _____ _____    ______ ____
ROOT
ATOM      1  N   UNL     1      -2.038   3.445  -0.577  0.00  0.00    +0.000 N 
ATOM      2  C   UNL     1      -0.945   4.236  -0.293  0.00  0.00    +0.000 A 
ATOM      3  C   UNL     1      -0.100   4.176  -1.377  0.00  0.00    +0.000 A 
ATOM      4  C   UNL     1      -0.778   3.348  -2.292  0.00  0.00    +0.000 A 
ATOM      5  N   UNL     1      -1.943   2.903  -1.821  0.00  0.00    +0.000 NA
ENDROOT
BRANCH   1   9
ATOM      6  C   UNL     1      -5.304   2.496   1.925  0.00  0.00    +0.000 A 
ATOM      7  C   UNL     1      -4.301   3.347   2.387  0.00  0.00    +0.000 A 
ATOM      8  C   UNL     1      -3.223   3.678   1.563  0.00  0.00    +0.000 A 
ATOM      9  C   UNL     1      -3.146   3.153   0.266  0.00  0.00    +0.000 A 
ATOM     10  C   UNL     1      -4.168   2.313  -0.199  0.00  0.00    +0.000 A 
ATOM     11  C   UNL     1      -5.240   1.983   0.631  0.00  0.00    +0.000 A 
ENDBRANCH   1   9
BRANCH   3  12
ATOM     12  C   UNL     1       1.209   4.792  -1.461  0.00  0.00    +0.000 A 
ATOM     13  C   UNL     1       2.012   4.582  -2.587  0.00  0.00    +0.000 A 
ATOM     14  C   UNL     1       3.315   5.078  -2.626  0.00  0.00    +0.000 A 
ATOM     15  C   UNL     1       3.828   5.782  -1.535  0.00  0.00    +0.000 A 
ATOM     16  C   UNL     1       3.042   6.007  -0.395  0.00  0.00    +0.000 A 
ATOM     17  C   UNL     1       1.724   5.525  -0.382  0.00  0.00    +0.000 A 
BRANCH  16  18
ATOM     18  C   UNL     1       3.576   6.661   0.796  0.00  0.00    +0.000 A 
ATOM     19  N   UNL     1       4.736   7.269   0.966  0.00  0.00    +0.000 NA
ATOM     20  C   UNL     1       4.659   7.786   2.233  0.00  0.00    +0.000 A 
ATOM     21  C   UNL     1       3.451   7.459   2.796  0.00  0.00    +0.000 A 
ATOM     22  O   UNL     1       2.747   6.730   1.888  0.00  0.00    +0.000 OA
ENDBRANCH  16  18
ENDBRANCH   3  12
TORSDOF 3
ENDMDL
MODEL 7
REMARK VINA RESULT:     0.000      5.068      7.370
REMARK INTER + INTRA:          -0.540
REMARK INTER:                   0.000
REMARK INTRA:                  -0.540
REMARK UNBOUND:                -0.540
REMARK  Name = 
REMARK  3 active torsions:
REMARK  status: ('A' for Active; 'I' for Inactive)
REMARK    1  A    between atoms: C_4  and  N_7
REMARK    2  A    between atoms: C_9  and  C_12
REMARK    3  A    between atoms: C_16  and  C_18
REMARK                            x       y       z     vdW  Elec       q    Type
REMARK                         _______ _______ _______ _____ _____    ______ ____
ROOT
ATOM      1  N   UNL     1      -1.323   3.318  -5.109  0.00  0.00    +0.000 N 
ATOM      2  C   UNL     1      -1.403   2.636  -3.913  0.00  0.00    +0.000 A 
ATOM      3  C   UNL     1      -0.123   2.274  -3.559  0.00  0.00    +0.000 A 
ATOM      4  C   UNL     1       0.678   2.808  -4.586  0.00  0.00    +0.000 A 
ATOM      5  N   UNL     1      -0.032   3.437  -5.522  0.00  0.00    +0.000 NA
ENDROOT
BRANCH   1   9
ATOM      6  C   UNL     1      -4.476   4.798  -7.495  0.00  0.00    +0.000 A 
ATOM      7  C   UNL     1      -4.761   4.156  -6.290  0.00  0.00    +0.000 A 
ATOM      8  C   UNL     1      -3.724   3.675  -5.486  0.00  0.00    +0.000 A 
ATOM      9  C   UNL     1      -2.392   3.835  -5.892  0.00  0.00    +0.000 A 
ATOM     10  C   UNL     1      -2.112   4.498  -7.095  0.00  0.00    +0.000 A 
ATOM     11  C   UNL     1      -3.153   4.973  -7.894  0.00  0.00    +0.000 A 
ENDBRANCH   1   9
BRANCH   3  12
ATOM     12  C   UNL     1       0.236   1.464  -2.412  0.00  0.00    +0.000 A 
ATOM     13  C   UNL     1       1.569   1.088  -2.210  0.00  0.00    +0.000 A 
ATOM     14  C   UNL     1       1.906   0.217  -1.174  0.00  0.00    +0.000 A 
ATOM     15  C   UNL     1       0.911  -0.291  -0.337  0.00  0.00    +0.000 A 
ATOM     16  C   UNL     1      -0.431   0.071  -0.518  0.00  0.00    +0.000 A 
ATOM     17  C   UNL     1      -0.751   0.970  -1.549  0.00  0.00    +0.000 A 
BRANCH  16  18
ATOM     18  C   UNL     1      -1.505  -0.510   0.281  0.00  0.00    +0.000 A 
ATOM     19  N   UNL     1      -1.426  -1.286   1.347  0.00  0.00    +0.000 NA
ATOM     20  C   UNL     1      -2.728  -1.439   1.745  0.00  0.00    +0.000 A 
ATOM     21  C   UNL     1      -3.559  -0.757   0.893  0.00  0.00    +0.000 A 
ATOM     22  O   UNL     1      -2.788  -0.161  -0.057  0.00  0.00    +0.000 OA
ENDBRANCH  16  18
ENDBRANCH   3  12
TORSDOF 3
ENDMDL
MODEL 8
REMARK VINA RESULT:     0.000      7.271      9.838
REMARK INTER + INTRA:          -0.540
REMARK INTER:                   0.000
REMARK INTRA:                  -0.540
REMARK UNBOUND:                -0.540
REMARK  Name = 
REMARK  3 active torsions:
REMARK  status: ('A' for Active; 'I' for Inactive)
REMARK    1  A    between atoms: C_4  and  N_7
REMARK    2  A    between atoms: C_9  and  C_12
REMARK    3  A    between atoms: C_16  and  C_18
REMARK                            x       y       z     vdW  Elec       q    Type
REMARK                         _______ _______ _______ _____ _____    ______ ____
ROOT
ATOM      1  N   UNL     1      -9.074   1.588   4.546  0.00  0.00    +0.000 N 
ATOM      2  C   UNL     1      -9.318   2.860   4.073  0.00  0.00    +0.000 A 
ATOM      3  C   UNL     1      -9.202   2.819   2.702  0.00  0.00    +0.000 A 
ATOM      4  C   UNL     1      -8.916   1.468   2.425  0.00  0.00    +0.000 A 
ATOM      5  N   UNL     1      -8.837   0.721   3.526  0.00  0.00    +0.000 NA
ENDROOT
BRANCH   1   9
ATOM      6  C   UNL     1      -8.846   0.287   8.556  0.00  0.00    +0.000 A 
ATOM      7  C   UNL     1      -9.137   1.622   8.276  0.00  0.00    +0.000 A 
ATOM      8  C   UNL     1      -9.227   2.060   6.952  0.00  0.00    +0.000 A 
ATOM      9  C   UNL     1      -9.025   1.157   5.900  0.00  0.00    +0.000 A 
ATOM     10  C   UNL     1      -8.752  -0.188   6.189  0.00  0.00    +0.000 A 
ATOM     11  C   UNL     1      -8.658  -0.618   7.513  0.00  0.00    +0.000 A 
ENDBRANCH   1   9
BRANCH   3  12
ATOM     12  C   UNL     1      -9.293   3.960   1.814  0.00  0.00    +0.000 A 
ATOM     13  C   UNL     1      -9.067   3.801   0.442  0.00  0.00    +0.000 A 
ATOM     14  C   UNL     1      -9.043   4.912  -0.402  0.00  0.00    +0.000 A 
ATOM     15  C   UNL     1      -9.236   6.191   0.121  0.00  0.00    +0.000 A 
ATOM     16  C   UNL     1      -9.466   6.377   1.491  0.00  0.00    +0.000 A 
ATOM     17  C   UNL     1      -9.515   5.247   2.324  0.00  0.00    +0.000 A 
BRANCH  16  18
ATOM     18  C   UNL     1      -9.584   7.705   2.084  0.00  0.00    +0.000 A 
ATOM     19  N   UNL     1      -9.664   8.882   1.487  0.00  0.00    +0.000 NA
ATOM     20  C   UNL     1      -9.867   9.764   2.516  0.00  0.00    +0.000 A 
ATOM     21  C   UNL     1      -9.888   9.090   3.710  0.00  0.00    +0.000 A 
ATOM     22  O   UNL     1      -9.700   7.767   3.450  0.00  0.00    +0.000 OA
ENDBRANCH  16  18
ENDBRANCH   3  12
TORSDOF 3
ENDMDL
MODEL 9
REMARK VINA RESULT:     0.000     11.664     13.093
REMARK INTER + INTRA:          -0.540
REMARK INTER:                   0.000
REMARK INTRA:                  -0.540
REMARK UNBOUND:                -0.540
REMARK  Name = 
REMARK  3 active torsions:
REMARK  status: ('A' for Active; 'I' for Inactive)
REMARK    1  A    between atoms: C_4  and  N_7
REMARK    2  A    between atoms: C_9  and  C_12
REMARK    3  A    between atoms: C_16  and  C_18
REMARK                            x       y       z     vdW  Elec       q    Type
REMARK                         _______ _______ _______ _____ _____    ______ ____
ROOT
ATOM      1  N   UNL     1       2.364  -1.878   5.773  0.00  0.00    +0.000 N 
ATOM      2  C   UNL     1       3.008  -2.517   4.735  0.00  0.00    +0.000 A 
ATOM      3  C   UNL     1       2.039  -2.979   3.872  0.00  0.00    +0.000 A 
ATOM      4  C   UNL     1       0.832  -2.543   4.451  0.00  0.00    +0.000 A 
ATOM      5  N   UNL     1       1.017  -1.881   5.593  0.00  0.00    +0.000 NA
ENDROOT
BRANCH   1   9
ATOM      6  C   UNL     1       4.053  -0.197   9.259  0.00  0.00    +0.000 A 
ATOM      7  C   UNL     1       4.880  -0.779   8.299  0.00  0.00    +0.000 A 
ATOM      8  C   UNL     1       4.333  -1.327   7.136  0.00  0.00    +0.000 A 
ATOM      9  C   UNL     1       2.947  -1.292   6.931  0.00  0.00    +0.000 A 
ATOM     10  C   UNL     1       2.123  -0.688   7.891  0.00  0.00    +0.000 A 
ATOM     11  C   UNL     1       2.676  -0.147   9.053  0.00  0.00    +0.000 A 
ENDBRANCH   1   9
BRANCH   3  12
ATOM     12  C   UNL     1       2.277  -3.785   2.692  0.00  0.00    +0.000 A 
ATOM     13  C   UNL     1       1.197  -4.269   1.944  0.00  0.00    +0.000 A 
ATOM     14  C   UNL     1       1.414  -5.137   0.874  0.00  0.00    +0.000 A 
ATOM     15  C   UNL     1       2.711  -5.536   0.549  0.00  0.00    +0.000 A 
ATOM     16  C   UNL     1       3.810  -5.064   1.282  0.00  0.00    +0.000 A 
ATOM     17  C   UNL     1       3.578  -4.169   2.340  0.00  0.00    +0.000 A 
BRANCH  16  18
ATOM     18  C   UNL     1       5.169  -5.529   1.026  0.00  0.00    +0.000 A 
ATOM     19  N   UNL     1       5.622  -6.281   0.038  0.00  0.00    +0.000 NA
ATOM     20  C   UNL     1       6.978  -6.310   0.236  0.00  0.00    +0.000 A 
ATOM     21  C   UNL     1       7.301  -5.582   1.353  0.00  0.00    +0.000 A 
ATOM     22  O   UNL     1       6.149  -5.081   1.876  0.00  0.00    +0.000 OA
ENDBRANCH  16  18
ENDBRANCH   3  12
TORSDOF 3
ENDMDL
