MODEL 1
REMARK VINA RESULT:    -0.001      0.000      0.000
REMARK INTER + INTRA:          -1.150
REMARK INTER:                   0.000
REMARK INTRA:                  -1.150
REMARK UNBOUND:                -1.149
REMARK  Name = 
REMARK  6 active torsions:
REMARK  status: ('A' for Active; 'I' for Inactive)
REMARK    1  A    between atoms: C_1  and  C_2
REMARK    2  A    between atoms: C_2  and  C_3
REMARK    3  A    between atoms: C_3  and  O_4
REMARK    4  A    between atoms: O_4  and  C_5
REMARK    5  A    between atoms: C_8  and  C_11
REMARK    6  A    between atoms: C_14  and  C_17
REMARK                            x       y       z     vdW  Elec       q    Type
REMARK                         _______ _______ _______ _____ _____    ______ ____
ROOT
ATOM      1  C   UNL     1      34.827  23.408  25.027  0.00  0.00    +0.000 A 
ATOM      2  C   UNL     1      33.644  23.704  24.325  0.00  0.00    +0.000 A 
ATOM      3  C   UNL     1      32.483  22.943  24.487  0.00  0.00    +0.000 A 
ATOM      4  C   UNL     1      32.468  21.842  25.349  0.00  0.00    +0.000 A 
ATOM      5  C   UNL     1      33.635  21.548  26.066  0.00  0.00    +0.000 A 
ATOM      6  C   UNL     1      34.791  22.321  25.911  0.00  0.00    +0.000 A 
ENDROOT
BRANCH   4   7
ATOM      7  C   UNL     1      31.226  20.977  25.398  0.00  0.00    +0.000 C 
ATOM      8  C   UNL     1      30.596  20.811  24.016  0.00  0.00    +0.000 C 
ATOM      9  C   UNL     1      31.267  19.558  23.459  0.00  0.00    +0.000 C 
ATOM     10  C   UNL     1      31.573  18.771  24.707  0.00  0.00    +0.000 C 
ATOM     11  O   UNL     1      31.911  17.598  24.761  0.00  0.00    +0.000 OA
ATOM     12  N   UNL     1      31.482  19.620  25.789  0.00  0.00    +0.000 N 
ATOM     13  H   UNL     1      31.766  19.324  26.714  0.00  0.00    +0.000 HD
ENDBRANCH   4   7
BRANCH   1  17
ATOM     14  C   UNL     1      38.372  25.793  24.412  0.00  0.00    +0.000 A 
ATOM     15  C   UNL     1      37.188  26.067  23.730  0.00  0.00    +0.000 A 
ATOM     16  C   UNL     1      36.046  25.303  23.952  0.00  0.00    +0.000 A 
ATOM     17  C   UNL     1      36.048  24.220  24.840  0.00  0.00    +0.000 A 
ATOM     18  C   UNL     1      37.251  23.951  25.522  0.00  0.00    +0.000 A 
ATOM     19  C   UNL     1      38.398  24.733  25.315  0.00  0.00    +0.000 A 
BRANCH  14  20
ATOM     20  O   UNL     1      39.541  26.501  24.265  0.00  0.00    +0.000 OA
BRANCH  20  21
ATOM     21  C   UNL     1      40.043  27.053  25.483  0.00  0.00    +0.000 C 
BRANCH  21  23
ATOM     22  C   UNL     1      38.632  28.164  27.196  0.00  0.00    +0.000 C 
ATOM     23  C   UNL     1      39.318  28.338  25.849  0.00  0.00    +0.000 C 
ENDBRANCH  21  23
ENDBRANCH  20  21
ENDBRANCH  14  20
ENDBRANCH   1  17
TORSDOF 5
ENDMDL
MODEL 2
REMARK VINA RESULT:    -0.001      9.437     11.777
REMARK INTER + INTRA:          -1.150
REMARK INTER:                   0.000
REMARK INTRA:                  -1.150
REMARK UNBOUND:                -1.149
REMARK  Name = 
REMARK  6 active torsions:
REMARK  status: ('A' for Active; 'I' for Inactive)
REMARK    1  A    between atoms: C_1  and  C_2
REMARK    2  A    between atoms: C_2  and  C_3
REMARK    3  A    between atoms: C_3  and  O_4
REMARK    4  A    between atoms: O_4  and  C_5
REMARK    5  A    between atoms: C_8  and  C_11
REMARK    6  A    between atoms: C_14  and  C_17
REMARK                            x       y       z     vdW  Elec       q    Type
REMARK                         _______ _______ _______ _____ _____    ______ ____
ROOT
ATOM      1  C   UNL     1      29.672  30.597  26.525  0.00  0.00    +0.000 A 
ATOM      2  C   UNL     1      30.561  31.687  26.563  0.00  0.00    +0.000 A 
ATOM      3  C   UNL     1      30.759  32.436  27.726  0.00  0.00    +0.000 A 
ATOM      4  C   UNL     1      30.057  32.131  28.896  0.00  0.00    +0.000 A 
ATOM      5  C   UNL     1      29.181  31.036  28.876  0.00  0.00    +0.000 A 
ATOM      6  C   UNL     1      28.998  30.282  27.712  0.00  0.00    +0.000 A 
ENDROOT
BRANCH   4   7
ATOM      7  C   UNL     1      30.212  33.044  30.094  0.00  0.00    +0.000 C 
ATOM      8  C   UNL     1      30.305  34.511  29.679  0.00  0.00    +0.000 C 
ATOM      9  C   UNL     1      28.854  34.985  29.693  0.00  0.00    +0.000 C 
ATOM     10  C   UNL     1      28.234  34.104  30.747  0.00  0.00    +0.000 C 
ATOM     11  O   UNL     1      27.141  34.257  31.271  0.00  0.00    +0.000 OA
ATOM     12  N   UNL     1      29.079  33.039  30.976  0.00  0.00    +0.000 N 
ATOM     13  H   UNL     1      28.800  32.263  31.561  0.00  0.00    +0.000 HD
ENDBRANCH   4   7
BRANCH   1  17
ATOM     14  C   UNL     1      29.100  28.386  22.862  0.00  0.00    +0.000 A 
ATOM     15  C   UNL     1      29.977  29.467  22.925  0.00  0.00    +0.000 A 
ATOM     16  C   UNL     1      30.168  30.160  24.118  0.00  0.00    +0.000 A 
ATOM     17  C   UNL     1      29.471  29.820  25.284  0.00  0.00    +0.000 A 
ATOM     18  C   UNL     1      28.586  28.726  25.208  0.00  0.00    +0.000 A 
ATOM     19  C   UNL     1      28.408  28.014  24.012  0.00  0.00    +0.000 A 
BRANCH  14  20
ATOM     20  O   UNL     1      28.860  27.639  21.734  0.00  0.00    +0.000 OA
BRANCH  20  21
ATOM     21  C   UNL     1      29.117  26.243  21.896  0.00  0.00    +0.000 C 
BRANCH  21  23
ATOM     22  C   UNL     1      31.094  25.317  23.076  0.00  0.00    +0.000 C 
ATOM     23  C   UNL     1      30.600  25.935  21.777  0.00  0.00    +0.000 C 
ENDBRANCH  21  23
ENDBRANCH  20  21
ENDBRANCH  14  20
ENDBRANCH   1  17
TORSDOF 5
ENDMDL
MODEL 3
REMARK VINA RESULT:    -0.001      5.873      8.708
REMARK INTER + INTRA:          -1.150
REMARK INTER:                   0.000
REMARK INTRA:                  -1.150
REMARK UNBOUND:                -1.149
REMARK  Name = 
REMARK  6 active torsions:
REMARK  status: ('A' for Active; 'I' for Inactive)
REMARK    1  A    between atoms: C_1  and  C_2
REMARK    2  A    between atoms: C_2  and  C_3
REMARK    3  A    between atoms: C_3  and  O_4
REMARK    4  A    between atoms: O_4  and  C_5
REMARK    5  A    between atoms: C_8  and  C_11
REMARK    6  A    between atoms: C_14  and  C_17
REMARK                            x       y       z     vdW  Elec       q    Type
REMARK                         _______ _______ _______ _____ _____    ______ ____
ROOT
ATOM      1  C   UNL     1      39.879  23.662  24.739  0.00  0.00    +0.000 A 
ATOM      2  C   UNL     1      40.610  23.328  23.584  0.00  0.00    +0.000 A 
ATOM      3  C   UNL     1      40.977  24.292  22.641  0.00  0.00    +0.000 A 
ATOM      4  C   UNL     1      40.608  25.630  22.811  0.00  0.00    +0.000 A 
ATOM      5  C   UNL     1      39.894  25.978  23.966  0.00  0.00    +0.000 A 
ATOM      6  C   UNL     1      39.541  25.011  24.914  0.00  0.00    +0.000 A 
ENDROOT
BRANCH   4   7
ATOM      7  C   UNL     1      40.922  26.614  21.704  0.00  0.00    +0.000 C 
ATOM      8  C   UNL     1      40.734  25.991  20.322  0.00  0.00    +0.000 C 
ATOM      9  C   UNL     1      39.278  26.298  19.980  0.00  0.00    +0.000 C 
ATOM     10  C   UNL     1      39.032  27.584  20.727  0.00  0.00    +0.000 C 
ATOM     11  O   UNL     1      38.080  28.335  20.586  0.00  0.00    +0.000 OA
ATOM     12  N   UNL     1      40.033  27.741  21.662  0.00  0.00    +0.000 N 
ATOM     13  H   UNL     1      39.994  28.478  22.354  0.00  0.00    +0.000 HD
ENDBRANCH   4   7
BRANCH   1  17
ATOM     14  C   UNL     1      38.753  20.596  27.561  0.00  0.00    +0.000 A 
ATOM     15  C   UNL     1      39.482  20.290  26.413  0.00  0.00    +0.000 A 
ATOM     16  C   UNL     1      39.856  21.291  25.520  0.00  0.00    +0.000 A 
ATOM     17  C   UNL     1      39.494  22.629  25.724  0.00  0.00    +0.000 A 
ATOM     18  C   UNL     1      38.757  22.925  26.887  0.00  0.00    +0.000 A 
ATOM     19  C   UNL     1      38.396  21.920  27.798  0.00  0.00    +0.000 A 
BRANCH  14  20
ATOM     20  O   UNL     1      38.353  19.676  28.501  0.00  0.00    +0.000 OA
BRANCH  20  21
ATOM     21  C   UNL     1      38.811  19.960  29.824  0.00  0.00    +0.000 C 
BRANCH  21  23
ATOM     22  C   UNL     1      41.105  20.733  30.371  0.00  0.00    +0.000 C 
ATOM     23  C   UNL     1      40.253  19.523  30.018  0.00  0.00    +0.000 C 
ENDBRANCH  21  23
ENDBRANCH  20  21
ENDBRANCH  14  20
ENDBRANCH   1  17
TORSDOF 5
ENDMDL
MODEL 4
REMARK VINA RESULT:    -0.000     10.401     11.531
REMARK INTER + INTRA:          -1.150
REMARK INTER:                   0.000
REMARK INTRA:                  -1.150
REMARK UNBOUND:                -1.149
REMARK  Name = 
REMARK  6 active torsions:
REMARK  status: ('A' for Active; 'I' for Inactive)
REMARK    1  A    between atoms: C_1  and  C_2
REMARK    2  A    between atoms: C_2  and  C_3
REMARK    3  A    between atoms: C_3  and  O_4
REMARK    4  A    between atoms: O_4  and  C_5
REMARK    5  A    between atoms: C_8  and  C_11
REMARK    6  A    between atoms: C_14  and  C_17
REMARK                            x       y       z     vdW  Elec       q    Type
REMARK                         _______ _______ _______ _____ _____    ______ ____
ROOT
ATOM      1  C   UNL     1      31.584  26.432  35.320  0.00  0.00    +0.000 A 
ATOM      2  C   UNL     1      30.297  25.940  35.605  0.00  0.00    +0.000 A 
ATOM      3  C   UNL     1      29.987  24.583  35.495  0.00  0.00    +0.000 A 
ATOM      4  C   UNL     1      30.954  23.663  35.077  0.00  0.00    +0.000 A 
ATOM      5  C   UNL     1      32.245  24.138  34.807  0.00  0.00    +0.000 A 
ATOM      6  C   UNL     1      32.554  25.497  34.932  0.00  0.00    +0.000 A 
ENDROOT
BRANCH   4   7
ATOM      7  C   UNL     1      30.539  22.224  34.855  0.00  0.00    +0.000 C 
ATOM      8  C   UNL     1      29.145  22.126  34.237  0.00  0.00    +0.000 C 
ATOM      9  C   UNL     1      29.414  22.124  32.734  0.00  0.00    +0.000 C 
ATOM     10  C   UNL     1      30.779  21.491  32.649  0.00  0.00    +0.000 C 
ATOM     11  O   UNL     1      31.324  21.075  31.639  0.00  0.00    +0.000 OA
ATOM     12  N   UNL     1      31.354  21.527  33.901  0.00  0.00    +0.000 N 
ATOM     13  H   UNL     1      32.320  21.262  34.044  0.00  0.00    +0.000 HD
ENDBRANCH   4   7
BRANCH   1  17
ATOM     14  C   UNL     1      32.420  30.654  35.643  0.00  0.00    +0.000 A 
ATOM     15  C   UNL     1      31.155  30.143  35.929  0.00  0.00    +0.000 A 
ATOM     16  C   UNL     1      30.904  28.777  35.841  0.00  0.00    +0.000 A 
ATOM     17  C   UNL     1      31.894  27.873  35.437  0.00  0.00    +0.000 A 
ATOM     18  C   UNL     1      33.168  28.401  35.149  0.00  0.00    +0.000 A 
ATOM     19  C   UNL     1      33.428  29.776  35.257  0.00  0.00    +0.000 A 
BRANCH  14  20
ATOM     20  O   UNL     1      32.759  31.984  35.717  0.00  0.00    +0.000 OA
BRANCH  20  21
ATOM     21  C   UNL     1      33.855  32.257  36.592  0.00  0.00    +0.000 C 
BRANCH  21  23
ATOM     22  C   UNL     1      34.141  31.223  38.830  0.00  0.00    +0.000 C 
ATOM     23  C   UNL     1      33.407  32.298  38.044  0.00  0.00    +0.000 C 
ENDBRANCH  21  23
ENDBRANCH  20  21
ENDBRANCH  14  20
ENDBRANCH   1  17
TORSDOF 5
ENDMDL
MODEL 5
REMARK VINA RESULT:    -0.000     12.035     15.128
REMARK INTER + INTRA:          -1.149
REMARK INTER:                   0.000
REMARK INTRA:                  -1.149
REMARK UNBOUND:                -1.149
REMARK  Name = 
REMARK  6 active torsions:
REMARK  status: ('A' for Active; 'I' for Inactive)
REMARK    1  A    between atoms: C_1  and  C_2
REMARK    2  A    between atoms: C_2  and  C_3
REMARK    3  A    between atoms: C_3  and  O_4
REMARK    4  A    between atoms: O_4  and  C_5
REMARK    5  A    between atoms: C_8  and  C_11
REMARK    6  A    between atoms: C_14  and  C_17
REMARK                            x       y       z     vdW  Elec       q    Type
REMARK                         _______ _______ _______ _____ _____    ______ ____
ROOT
ATOM      1  C   UNL     1      29.819  27.724  35.575  0.00  0.00    +0.000 A 
ATOM      2  C   UNL     1      31.191  27.697  35.265  0.00  0.00    +0.000 A 
ATOM      3  C   UNL     1      31.966  28.859  35.251  0.00  0.00    +0.000 A 
ATOM      4  C   UNL     1      31.389  30.102  35.532  0.00  0.00    +0.000 A 
ATOM      5  C   UNL     1      30.026  30.140  35.859  0.00  0.00    +0.000 A 
ATOM      6  C   UNL     1      29.259  28.970  35.885  0.00  0.00    +0.000 A 
ENDROOT
BRANCH   4   7
ATOM      7  C   UNL     1      32.239  31.346  35.385  0.00  0.00    +0.000 C 
ATOM      8  C   UNL     1      33.180  31.250  34.186  0.00  0.00    +0.000 C 
ATOM      9  C   UNL     1      32.369  31.850  33.039  0.00  0.00    +0.000 C 
ATOM     10  C   UNL     1      31.478  32.834  33.751  0.00  0.00    +0.000 C 
ATOM     11  O   UNL     1      30.806  33.712  33.233  0.00  0.00    +0.000 OA
ATOM     12  N   UNL     1      31.484  32.532  35.096  0.00  0.00    +0.000 N 
ATOM     13  H   UNL     1      30.858  32.995  35.742  0.00  0.00    +0.000 HD
ENDBRANCH   4   7
BRANCH   1  17
ATOM     14  C   UNL     1      27.509  24.077  35.538  0.00  0.00    +0.000 A 
ATOM     15  C   UNL     1      28.871  24.075  35.237  0.00  0.00    +0.000 A 
ATOM     16  C   UNL     1      29.609  25.255  35.273  0.00  0.00    +0.000 A 
ATOM     17  C   UNL     1      29.013  26.484  35.580  0.00  0.00    +0.000 A 
ATOM     18  C   UNL     1      27.637  26.475  35.880  0.00  0.00    +0.000 A 
ATOM     19  C   UNL     1      26.895  25.283  35.864  0.00  0.00    +0.000 A 
BRANCH  14  20
ATOM     20  O   UNL     1      26.708  22.961  35.539  0.00  0.00    +0.000 OA
BRANCH  20  21
ATOM     21  C   UNL     1      26.045  22.724  36.783  0.00  0.00    +0.000 C 
BRANCH  21  23
ATOM     22  C   UNL     1      27.128  22.949  39.005  0.00  0.00    +0.000 C 
ATOM     23  C   UNL     1      26.971  22.053  37.785  0.00  0.00    +0.000 C 
ENDBRANCH  21  23
ENDBRANCH  20  21
ENDBRANCH  14  20
ENDBRANCH   1  17
TORSDOF 5
ENDMDL
MODEL 6
REMARK VINA RESULT:    -0.000      9.940     12.701
REMARK INTER + INTRA:          -1.149
REMARK INTER:                   0.000
REMARK INTRA:                  -1.149
REMARK UNBOUND:                -1.149
REMARK  Name = 
REMARK  6 active torsions:
REMARK  status: ('A' for Active; 'I' for Inactive)
REMARK    1  A    between atoms: C_1  and  C_2
REMARK    2  A    between atoms: C_2  and  C_3
REMARK    3  A    between atoms: C_3  and  O_4
REMARK    4  A    between atoms: O_4  and  C_5
REMARK    5  A    between atoms: C_8  and  C_11
REMARK    6  A    between atoms: C_14  and  C_17
REMARK                            x       y       z     vdW  Elec       q    Type
REMARK                         _______ _______ _______ _____ _____    ______ ____
ROOT
ATOM      1  C   UNL     1      34.265  20.672  34.809  0.00  0.00    +0.000 A 
ATOM      2  C   UNL     1      35.453  21.153  35.390  0.00  0.00    +0.000 A 
ATOM      3  C   UNL     1      36.644  21.240  34.666  0.00  0.00    +0.000 A 
ATOM      4  C   UNL     1      36.696  20.830  33.330  0.00  0.00    +0.000 A 
ATOM      5  C   UNL     1      35.516  20.365  32.734  0.00  0.00    +0.000 A 
ATOM      6  C   UNL     1      34.322  20.293  33.460  0.00  0.00    +0.000 A 
ENDROOT
BRANCH   4   7
ATOM      7  C   UNL     1      38.036  20.829  32.624  0.00  0.00    +0.000 C 
ATOM      8  C   UNL     1      39.164  20.384  33.552  0.00  0.00    +0.000 C 
ATOM      9  C   UNL     1      39.225  18.872  33.351  0.00  0.00    +0.000 C 
ATOM     10  C   UNL     1      38.746  18.712  31.931  0.00  0.00    +0.000 C 
ATOM     11  O   UNL     1      38.829  17.705  31.246  0.00  0.00    +0.000 OA
ATOM     12  N   UNL     1      38.122  19.881  31.549  0.00  0.00    +0.000 N 
ATOM     13  H   UNL     1      37.622  19.947  30.672  0.00  0.00    +0.000 HD
ENDBRANCH   4   7
BRANCH   1  17
ATOM     14  C   UNL     1      30.652  20.395  37.154  0.00  0.00    +0.000 A 
ATOM     15  C   UNL     1      31.839  20.874  37.707  0.00  0.00    +0.000 A 
ATOM     16  C   UNL     1      32.992  20.978  36.934  0.00  0.00    +0.000 A 
ATOM     17  C   UNL     1      33.015  20.581  35.591  0.00  0.00    +0.000 A 
ATOM     18  C   UNL     1      31.810  20.096  35.044  0.00  0.00    +0.000 A 
ATOM     19  C   UNL     1      30.641  20.011  35.816  0.00  0.00    +0.000 A 
BRANCH  14  20
ATOM     20  O   UNL     1      29.466  20.272  37.838  0.00  0.00    +0.000 OA
BRANCH  20  21
ATOM     21  C   UNL     1      28.378  20.986  37.247  0.00  0.00    +0.000 C 
BRANCH  21  23
ATOM     22  C   UNL     1      28.553  23.288  36.336  0.00  0.00    +0.000 C 
ATOM     23  C   UNL     1      28.425  22.462  37.607  0.00  0.00    +0.000 C 
ENDBRANCH  21  23
ENDBRANCH  20  21
ENDBRANCH  14  20
ENDBRANCH   1  17
TORSDOF 5
ENDMDL
MODEL 7
REMARK VINA RESULT:     0.000     11.306     13.095
REMARK INTER + INTRA:          -1.149
REMARK INTER:                   0.000
REMARK INTRA:                  -1.149
REMARK UNBOUND:                -1.149
REMARK  Name = 
REMARK  6 active torsions:
REMARK  status: ('A' for Active; 'I' for Inactive)
REMARK    1  A    between atoms: C_1  and  C_2
REMARK    2  A    between atoms: C_2  and  C_3
REMARK    3  A    between atoms: C_3  and  O_4
REMARK    4  A    between atoms: O_4  and  C_5
REMARK    5  A    between atoms: C_8  and  C_11
REMARK    6  A    between atoms: C_14  and  C_17
REMARK                            x       y       z     vdW  Elec       q    Type
REMARK                         _______ _______ _______ _____ _____    ______ ____
ROOT
ATOM      1  C   UNL     1      31.726  21.013  36.305  0.00  0.00    +0.000 A 
ATOM      2  C   UNL     1      32.459  21.430  37.431  0.00  0.00    +0.000 A 
ATOM      3  C   UNL     1      32.003  21.201  38.732  0.00  0.00    +0.000 A 
ATOM      4  C   UNL     1      30.781  20.558  38.955  0.00  0.00    +0.000 A 
ATOM      5  C   UNL     1      30.051  20.122  37.841  0.00  0.00    +0.000 A 
ATOM      6  C   UNL     1      30.519  20.342  36.541  0.00  0.00    +0.000 A 
ENDROOT
BRANCH   4   7
ATOM      7  C   UNL     1      30.272  20.441  40.376  0.00  0.00    +0.000 C 
ATOM      8  C   UNL     1      30.577  21.696  41.191  0.00  0.00    +0.000 C 
ATOM      9  C   UNL     1      29.346  22.575  40.980  0.00  0.00    +0.000 C 
ATOM     10  C   UNL     1      28.255  21.559  40.760  0.00  0.00    +0.000 C 
ATOM     11  O   UNL     1      27.053  21.772  40.767  0.00  0.00    +0.000 OA
ATOM     12  N   UNL     1      28.843  20.346  40.472  0.00  0.00    +0.000 N 
ATOM     13  H   UNL     1      28.290  19.553  40.173  0.00  0.00    +0.000 HD
ENDBRANCH   4   7
BRANCH   1  17
ATOM     14  C   UNL     1      33.203  21.819  32.330  0.00  0.00    +0.000 A 
ATOM     15  C   UNL     1      33.913  22.220  33.461  0.00  0.00    +0.000 A 
ATOM     16  C   UNL     1      33.436  21.936  34.738  0.00  0.00    +0.000 A 
ATOM     17  C   UNL     1      32.221  21.268  34.936  0.00  0.00    +0.000 A 
ATOM     18  C   UNL     1      31.512  20.870  33.786  0.00  0.00    +0.000 A 
ATOM     19  C   UNL     1      32.002  21.137  32.498  0.00  0.00    +0.000 A 
BRANCH  14  20
ATOM     20  O   UNL     1      33.605  22.045  31.035  0.00  0.00    +0.000 OA
BRANCH  20  21
ATOM     21  C   UNL     1      33.732  20.857  30.251  0.00  0.00    +0.000 C 
BRANCH  21  23
ATOM     22  C   UNL     1      34.763  18.752  31.065  0.00  0.00    +0.000 C 
ATOM     23  C   UNL     1      35.046  20.147  30.529  0.00  0.00    +0.000 C 
ENDBRANCH  21  23
ENDBRANCH  20  21
ENDBRANCH  14  20
ENDBRANCH   1  17
TORSDOF 5
ENDMDL
MODEL 8
REMARK VINA RESULT:     0.000      4.443      7.165
REMARK INTER + INTRA:          -1.149
REMARK INTER:                   0.000
REMARK INTRA:                  -1.149
REMARK UNBOUND:                -1.149
REMARK  Name = 
REMARK  6 active torsions:
REMARK  status: ('A' for Active; 'I' for Inactive)
REMARK    1  A    between atoms: C_1  and  C_2
REMARK    2  A    between atoms: C_2  and  C_3
REMARK    3  A    between atoms: C_3  and  O_4
REMARK    4  A    between atoms: O_4  and  C_5
REMARK    5  A    between atoms: C_8  and  C_11
REMARK    6  A    between atoms: C_14  and  C_17
REMARK                            x       y       z     vdW  Elec       q    Type
REMARK                         _______ _______ _______ _____ _____    ______ ____
ROOT
ATOM      1  C   UNL     1      40.568  25.647  27.056  0.00  0.00    +0.000 A 
ATOM      2  C   UNL     1      40.338  24.260  27.113  0.00  0.00    +0.000 A 
ATOM      3  C   UNL     1      39.356  23.644  26.334  0.00  0.00    +0.000 A 
ATOM      4  C   UNL     1      38.550  24.400  25.476  0.00  0.00    +0.000 A 
ATOM      5  C   UNL     1      38.781  25.780  25.397  0.00  0.00    +0.000 A 
ATOM      6  C   UNL     1      39.776  26.390  26.170  0.00  0.00    +0.000 A 
ENDROOT
BRANCH   4   7
ATOM      7  C   UNL     1      37.420  23.707  24.744  0.00  0.00    +0.000 C 
ATOM      8  C   UNL     1      36.741  22.655  25.618  0.00  0.00    +0.000 C 
ATOM      9  C   UNL     1      35.621  23.427  26.312  0.00  0.00    +0.000 C 
ATOM     10  C   UNL     1      35.294  24.500  25.305  0.00  0.00    +0.000 C 
ATOM     11  O   UNL     1      34.314  25.229  25.313  0.00  0.00    +0.000 OA
ATOM     12  N   UNL     1      36.332  24.579  24.402  0.00  0.00    +0.000 N 
ATOM     13  H   UNL     1      36.372  25.317  23.711  0.00  0.00    +0.000 HD
ENDBRANCH   4   7
BRANCH   1  17
ATOM     14  C   UNL     1      43.595  27.453  29.548  0.00  0.00    +0.000 A 
ATOM     15  C   UNL     1      43.352  26.081  29.583  0.00  0.00    +0.000 A 
ATOM     16  C   UNL     1      42.387  25.507  28.760  0.00  0.00    +0.000 A 
ATOM     17  C   UNL     1      41.608  26.283  27.892  0.00  0.00    +0.000 A 
ATOM     18  C   UNL     1      41.860  27.668  27.866  0.00  0.00    +0.000 A 
ATOM     19  C   UNL     1      42.847  28.245  28.681  0.00  0.00    +0.000 A 
BRANCH  14  20
ATOM     20  O   UNL     1      44.534  28.100  30.314  0.00  0.00    +0.000 OA
BRANCH  20  21
ATOM     21  C   UNL     1      45.493  28.840  29.556  0.00  0.00    +0.000 C 
BRANCH  21  23
ATOM     22  C   UNL     1      46.572  28.008  27.481  0.00  0.00    +0.000 C 
ATOM     23  C   UNL     1      46.579  27.933  29.001  0.00  0.00    +0.000 C 
ENDBRANCH  21  23
ENDBRANCH  20  21
ENDBRANCH  14  20
ENDBRANCH   1  17
TORSDOF 5
ENDMDL
MODEL 9
REMARK VINA RESULT:     0.000     10.874     11.868
REMARK INTER + INTRA:          -1.149
REMARK INTER:                   0.000
REMARK INTRA:                  -1.149
REMARK UNBOUND:                -1.149
REMARK  Name = 
REMARK  6 active torsions:
REMARK  status: ('A' for Active; 'I' for Inactive)
REMARK    1  A    between atoms: C_1  and  C_2
REMARK    2  A    between atoms: C_2  and  C_3
REMARK    3  A    between atoms: C_3  and  O_4
REMARK    4  A    between atoms: O_4  and  C_5
REMARK    5  A    between atoms: C_8  and  C_11
REMARK    6  A    between atoms: C_14  and  C_17
REMARK                            x       y       z     vdW  Elec       q    Type
REMARK                         _______ _______ _______ _____ _____    ______ ____
ROOT
ATOM      1  C   UNL     1      32.456  23.935  35.904  0.00  0.00    +0.000 A 
ATOM      2  C   UNL     1      32.106  23.032  36.925  0.00  0.00    +0.000 A 
ATOM      3  C   UNL     1      30.782  22.644  37.143  0.00  0.00    +0.000 A 
ATOM      4  C   UNL     1      29.749  23.164  36.356  0.00  0.00    +0.000 A 
ATOM      5  C   UNL     1      30.087  24.051  35.325  0.00  0.00    +0.000 A 
ATOM      6  C   UNL     1      31.417  24.424  35.101  0.00  0.00    +0.000 A 
ENDROOT
BRANCH   4   7
ATOM      7  C   UNL     1      28.320  22.810  36.709  0.00  0.00    +0.000 C 
ATOM      8  C   UNL     1      28.107  22.756  38.220  0.00  0.00    +0.000 C 
ATOM      9  C   UNL     1      27.686  24.180  38.579  0.00  0.00    +0.000 C 
ATOM     10  C   UNL     1      27.006  24.646  37.317  0.00  0.00    +0.000 C 
ATOM     11  O   UNL     1      26.311  25.642  37.192  0.00  0.00    +0.000 OA
ATOM     12  N   UNL     1      27.361  23.794  36.293  0.00  0.00    +0.000 N 
ATOM     13  H   UNL     1      27.111  23.994  35.333  0.00  0.00    +0.000 HD
ENDBRANCH   4   7
BRANCH   1  17
ATOM     14  C   UNL     1      36.574  25.102  35.349  0.00  0.00    +0.000 A 
ATOM     15  C   UNL     1      36.204  24.206  36.351  0.00  0.00    +0.000 A 
ATOM     16  C   UNL     1      34.875  23.822  36.507  0.00  0.00    +0.000 A 
ATOM     17  C   UNL     1      33.862  24.337  35.690  0.00  0.00    +0.000 A 
ATOM     18  C   UNL     1      34.247  25.244  34.682  0.00  0.00    +0.000 A 
ATOM     19  C   UNL     1      35.589  25.616  34.511  0.00  0.00    +0.000 A 
BRANCH  14  20
ATOM     20  O   UNL     1      37.861  25.525  35.116  0.00  0.00    +0.000 OA
BRANCH  20  21
ATOM     21  C   UNL     1      38.324  25.272  33.789  0.00  0.00    +0.000 C 
BRANCH  21  23
ATOM     22  C   UNL     1      37.931  23.155  32.555  0.00  0.00    +0.000 C 
ATOM     23  C   UNL     1      38.775  23.830  33.625  0.00  0.00    +0.000 C 
ENDBRANCH  21  23
ENDBRANCH  20  21
ENDBRANCH  14  20
ENDBRANCH   1  17
TORSDOF 5
ENDMDL
