REMARK  Name = 
REMARK  6 active torsions:
REMARK  status: ('A' for Active; 'I' for Inactive)
REMARK    1  A    between atoms: C_1  and  C_2
REMARK    2  A    between atoms: C_2  and  C_3
REMARK    3  A    between atoms: C_3  and  O_4
REMARK    4  A    between atoms: O_4  and  C_5
REMARK    5  A    between atoms: C_8  and  C_11
REMARK    6  A    between atoms: C_14  and  C_17
REMARK                            x       y       z     vdW  Elec       q    Type
REMARK                         _______ _______ _______ _____ _____    ______ ____
ROOT
ATOM      1  C   UNL     1       8.974   8.885  -8.132  0.00  0.00    +0.000 A 
ATOM      2  C   UNL     1       9.718   8.082  -7.248  0.00  0.00    +0.000 A 
ATOM      3  C   UNL     1       9.696   8.292  -5.867  0.00  0.00    +0.000 A 
ATOM      4  C   UNL     1       8.938   9.331  -5.317  0.00  0.00    +0.000 A 
ATOM      5  C   UNL     1       8.179  10.127  -6.186  0.00  0.00    +0.000 A 
ATOM      6  C   UNL     1       8.194   9.903  -7.567  0.00  0.00    +0.000 A 
ENDROOT
BRANCH   4   7
ATOM      7  C   UNL     1       9.042   9.596  -3.830  0.00  0.00    +0.000 C 
ATOM      8  C   UNL     1      10.208  10.526  -3.501  0.00  0.00    +0.000 C 
ATOM      9  C   UNL     1       9.587  11.920  -3.555  0.00  0.00    +0.000 C 
ATOM     10  C   UNL     1       8.156  11.654  -3.164  0.00  0.00    +0.000 C 
ATOM     11  O   UNL     1       7.321  12.489  -2.853  0.00  0.00    +0.000 OA
ATOM     12  N   UNL     1       7.916  10.302  -3.288  0.00  0.00    +0.000 N 
ATOM     13  H   UNL     1       6.983   9.923  -3.190  0.00  0.00    +0.000 HD
ENDBRANCH   4   7
BRANCH   1  17
ATOM     14  C   UNL     1       9.132   8.148 -12.382  0.00  0.00    +0.000 A 
ATOM     15  C   UNL     1       9.256   7.108 -11.462  0.00  0.00    +0.000 A 
ATOM     16  C   UNL     1       9.183   7.356 -10.094  0.00  0.00    +0.000 A 
ATOM     17  C   UNL     1       9.013   8.652  -9.591  0.00  0.00    +0.000 A 
ATOM     18  C   UNL     1       8.891   9.695 -10.530  0.00  0.00    +0.000 A 
ATOM     19  C   UNL     1       8.944   9.444 -11.910  0.00  0.00    +0.000 A 
BRANCH  14  20
ATOM     20  O   UNL     1       9.179   7.993 -13.747  0.00  0.00    +0.000 OA
BRANCH  20  21
ATOM     21  C   UNL     1       9.353   6.640 -14.172  0.00  0.00    +0.000 C 
BRANCH  21  23
ATOM     22  C   UNL     1       9.549   5.077 -16.090  0.00  0.00    +0.000 C 
ATOM     23  C   UNL     1       9.374   6.534 -15.688  0.00  0.00    +0.000 C 
ENDBRANCH  21  23
ENDBRANCH  20  21
ENDBRANCH  14  20
ENDBRANCH   1  17
TORSDOF 5
