REMARK  Name = 
REMARK  5 active torsions:
REMARK  status: ('A' for Active; 'I' for Inactive)
REMARK    1  A    between atoms: C_1  and  C_2
REMARK    2  A    between atoms: C_2  and  C_3
REMARK    3  A    between atoms: C_3  and  O_4
REMARK    4  A    between atoms: O_4  and  C_5
REMARK    5  A    between atoms: C_8  and  C_11
REMARK                            x       y       z     vdW  Elec       q    Type
REMARK                         _______ _______ _______ _____ _____    ______ ____
ROOT
ATOM      1  C   UNL     1       5.385  -1.640  -2.002  0.00  0.00    +0.000 A 
ATOM      2  C   UNL     1       6.503  -2.370  -1.602  0.00  0.00    +0.000 A 
ATOM      3  C   UNL     1       7.215  -3.139  -2.515  0.00  0.00    +0.000 A 
ATOM      4  C   UNL     1       6.812  -3.252  -3.850  0.00  0.00    +0.000 A 
ATOM      5  C   UNL     1       5.711  -2.482  -4.263  0.00  0.00    +0.000 A 
ATOM      6  C   UNL     1       5.006  -1.679  -3.345  0.00  0.00    +0.000 A 
ENDROOT
BRANCH   4   7
ATOM      7  C   UNL     1       7.486  -4.237  -4.722  0.00  0.00    +0.000 A 
ATOM      8  C   UNL     1       7.865  -5.482  -4.186  0.00  0.00    +0.000 A 
ATOM      9  C   UNL     1       8.448  -6.469  -4.971  0.00  0.00    +0.000 A 
ATOM     10  C   UNL     1       8.626  -6.246  -6.335  0.00  0.00    +0.000 A 
ATOM     11  C   UNL     1       9.096  -7.265  -7.162  0.00  0.00    +0.000 A 
ATOM     12  C   UNL     1       9.203  -7.011  -8.510  0.00  0.00    +0.000 A 
ATOM     13  N   UNL     1       8.916  -5.808  -9.036  0.00  0.00    +0.000 NA
ATOM     14  N   UNL     1       8.469  -4.798  -8.218  0.00  0.00    +0.000 NA
ATOM     15  C   UNL     1       8.293  -5.002  -6.902  0.00  0.00    +0.000 A 
ATOM     16  C   UNL     1       7.745  -4.013  -6.083  0.00  0.00    +0.000 A 
ENDBRANCH   4   7
BRANCH   1  17
ATOM     17  O   UNL     1       4.615  -0.877  -1.155  0.00  0.00    +0.000 OA
BRANCH  17  18
ATOM     18  C   UNL     1       5.040  -0.915   0.213  0.00  0.00    +0.000 C 
BRANCH  18  20
ATOM     19  C   UNL     1       4.684  -0.082   2.530  0.00  0.00    +0.000 C 
ATOM     20  C   UNL     1       4.169  -0.036   1.097  0.00  0.00    +0.000 C 
ENDBRANCH  18  20
ENDBRANCH  17  18
ENDBRANCH   1  17
TORSDOF 4
