MODEL 1
REMARK VINA RESULT:     0.000      0.000      0.000
REMARK INTER + INTRA:          -0.856
REMARK INTER:                   0.000
REMARK INTRA:                  -0.856
REMARK UNBOUND:                -0.856
REMARK  Name = 
REMARK  8 active torsions:
REMARK  status: ('A' for Active; 'I' for Inactive)
REMARK    1  A    between atoms: C_1  and  O_2
REMARK    2  A    between atoms: O_2  and  C_3
REMARK    3  A    between atoms: C_3  and  C_4
REMARK    4  A    between atoms: C_4  and  O_5
REMARK    5  A    between atoms: O_5  and  C_6
REMARK    6  A    between atoms: C_9  and  C_12
REMARK    7  A    between atoms: C_15  and  S_19
REMARK    8  A    between atoms: S_19  and  C_20
REMARK                            x       y       z     vdW  Elec       q    Type
REMARK                         _______ _______ _______ _____ _____    ______ ____
ROOT
ATOM      1  C   UNL     1      39.768  23.720  33.248  0.00  0.00    +0.000 A 
ATOM      2  C   UNL     1      40.371  24.948  33.505  0.00  0.00    +0.000 A 
ATOM      3  C   UNL     1      39.625  26.015  34.002  0.00  0.00    +0.000 A 
ATOM      4  C   UNL     1      38.245  25.911  34.235  0.00  0.00    +0.000 A 
ATOM      5  C   UNL     1      37.649  24.665  33.971  0.00  0.00    +0.000 A 
ATOM      6  C   UNL     1      38.402  23.580  33.488  0.00  0.00    +0.000 A 
ENDROOT
BRANCH   4   7
ATOM      7  C   UNL     1      37.492  27.086  34.731  0.00  0.00    +0.000 A 
ATOM      8  C   UNL     1      37.306  27.282  36.112  0.00  0.00    +0.000 A 
ATOM      9  C   UNL     1      36.542  28.344  36.608  0.00  0.00    +0.000 A 
ATOM     10  C   UNL     1      35.955  29.271  35.745  0.00  0.00    +0.000 A 
ATOM     11  C   UNL     1      36.147  29.104  34.373  0.00  0.00    +0.000 A 
ATOM     12  C   UNL     1      36.899  28.030  33.883  0.00  0.00    +0.000 A 
ATOM     13  F   UNL     1      37.009  27.917  32.550  0.00  0.00    +0.000 F 
BRANCH  10  14
ATOM     14  S   UNL     1      35.009  30.581  36.506  0.00  0.00    +0.000 S 
ATOM     15  C   UNL     1      35.154  30.221  38.273  0.00  0.00    +0.000 C 
ENDBRANCH  10  14
ENDBRANCH   4   7
BRANCH   1  16
ATOM     16  O   UNL     1      40.423  22.611  32.772  0.00  0.00    +0.000 OA
BRANCH  16  17
ATOM     17  C   UNL     1      39.876  22.074  31.567  0.00  0.00    +0.000 C 
BRANCH  17  18
ATOM     18  C   UNL     1      40.280  22.900  30.359  0.00  0.00    +0.000 C 
BRANCH  18  20
ATOM     19  C   UNL     1      38.994  24.817  29.864  0.00  0.00    +0.000 C 
ATOM     20  O   UNL     1      39.083  23.405  29.766  0.00  0.00    +0.000 OA
ENDBRANCH  18  20
ENDBRANCH  17  18
ENDBRANCH  16  17
ENDBRANCH   1  16
TORSDOF 6
ENDMDL
MODEL 2
REMARK VINA RESULT:     0.000      5.909      8.656
REMARK INTER + INTRA:          -0.856
REMARK INTER:                   0.000
REMARK INTRA:                  -0.856
REMARK UNBOUND:                -0.856
REMARK  Name = 
REMARK  8 active torsions:
REMARK  status: ('A' for Active; 'I' for Inactive)
REMARK    1  A    between atoms: C_1  and  O_2
REMARK    2  A    between atoms: O_2  and  C_3
REMARK    3  A    between atoms: C_3  and  C_4
REMARK    4  A    between atoms: C_4  and  O_5
REMARK    5  A    between atoms: O_5  and  C_6
REMARK    6  A    between atoms: C_9  and  C_12
REMARK    7  A    between atoms: C_15  and  S_19
REMARK    8  A    between atoms: S_19  and  C_20
REMARK                            x       y       z     vdW  Elec       q    Type
REMARK                         _______ _______ _______ _____ _____    ______ ____
ROOT
ATOM      1  C   UNL     1      32.783  24.936  32.410  0.00  0.00    +0.000 A 
ATOM      2  C   UNL     1      33.811  25.815  32.079  0.00  0.00    +0.000 A 
ATOM      3  C   UNL     1      34.562  25.625  30.922  0.00  0.00    +0.000 A 
ATOM      4  C   UNL     1      34.339  24.538  30.062  0.00  0.00    +0.000 A 
ATOM      5  C   UNL     1      33.298  23.659  30.408  0.00  0.00    +0.000 A 
ATOM      6  C   UNL     1      32.524  23.858  31.565  0.00  0.00    +0.000 A 
ENDROOT
BRANCH   4   7
ATOM      7  C   UNL     1      35.190  24.363  28.862  0.00  0.00    +0.000 A 
ATOM      8  C   UNL     1      34.786  24.886  27.620  0.00  0.00    +0.000 A 
ATOM      9  C   UNL     1      35.534  24.678  26.456  0.00  0.00    +0.000 A 
ATOM     10  C   UNL     1      36.731  23.961  26.490  0.00  0.00    +0.000 A 
ATOM     11  C   UNL     1      37.157  23.452  27.717  0.00  0.00    +0.000 A 
ATOM     12  C   UNL     1      36.396  23.650  28.875  0.00  0.00    +0.000 A 
ATOM     13  F   UNL     1      36.854  23.100  30.011  0.00  0.00    +0.000 F 
BRANCH  10  14
ATOM     14  S   UNL     1      37.590  23.771  24.936  0.00  0.00    +0.000 S 
ATOM     15  C   UNL     1      36.565  24.710  23.779  0.00  0.00    +0.000 C 
ENDBRANCH  10  14
ENDBRANCH   4   7
BRANCH   1  16
ATOM     16  O   UNL     1      31.982  25.051  33.519  0.00  0.00    +0.000 OA
BRANCH  16  17
ATOM     17  C   UNL     1      31.971  23.898  34.360  0.00  0.00    +0.000 C 
BRANCH  17  18
ATOM     18  C   UNL     1      33.226  23.819  35.210  0.00  0.00    +0.000 C 
BRANCH  18  20
ATOM     19  C   UNL     1      35.139  22.842  34.230  0.00  0.00    +0.000 C 
ATOM     20  O   UNL     1      33.897  22.604  34.872  0.00  0.00    +0.000 OA
ENDBRANCH  18  20
ENDBRANCH  17  18
ENDBRANCH  16  17
ENDBRANCH   1  16
TORSDOF 6
ENDMDL
MODEL 3
REMARK VINA RESULT:     0.001      6.860      7.990
REMARK INTER + INTRA:          -0.856
REMARK INTER:                   0.000
REMARK INTRA:                  -0.856
REMARK UNBOUND:                -0.856
REMARK  Name = 
REMARK  8 active torsions:
REMARK  status: ('A' for Active; 'I' for Inactive)
REMARK    1  A    between atoms: C_1  and  O_2
REMARK    2  A    between atoms: O_2  and  C_3
REMARK    3  A    between atoms: C_3  and  C_4
REMARK    4  A    between atoms: C_4  and  O_5
REMARK    5  A    between atoms: O_5  and  C_6
REMARK    6  A    between atoms: C_9  and  C_12
REMARK    7  A    between atoms: C_15  and  S_19
REMARK    8  A    between atoms: S_19  and  C_20
REMARK                            x       y       z     vdW  Elec       q    Type
REMARK                         _______ _______ _______ _____ _____    ______ ____
ROOT
ATOM      1  C   UNL     1      31.996  24.861  31.145  0.00  0.00    +0.000 A 
ATOM      2  C   UNL     1      33.111  25.091  30.345  0.00  0.00    +0.000 A 
ATOM      3  C   UNL     1      33.476  26.389  29.994  0.00  0.00    +0.000 A 
ATOM      4  C   UNL     1      32.731  27.506  30.401  0.00  0.00    +0.000 A 
ATOM      5  C   UNL     1      31.607  27.259  31.209  0.00  0.00    +0.000 A 
ATOM      6  C   UNL     1      31.246  25.952  31.582  0.00  0.00    +0.000 A 
ENDROOT
BRANCH   4   7
ATOM      7  C   UNL     1      33.143  28.862  29.971  0.00  0.00    +0.000 A 
ATOM      8  C   UNL     1      33.990  29.640  30.782  0.00  0.00    +0.000 A 
ATOM      9  C   UNL     1      34.341  30.949  30.435  0.00  0.00    +0.000 A 
ATOM     10  C   UNL     1      33.882  31.527  29.249  0.00  0.00    +0.000 A 
ATOM     11  C   UNL     1      33.057  30.762  28.423  0.00  0.00    +0.000 A 
ATOM     12  C   UNL     1      32.697  29.459  28.783  0.00  0.00    +0.000 A 
ATOM     13  F   UNL     1      31.873  28.799  27.954  0.00  0.00    +0.000 F 
BRANCH  10  14
ATOM     14  S   UNL     1      34.406  33.202  28.923  0.00  0.00    +0.000 S 
ATOM     15  C   UNL     1      35.434  33.599  30.358  0.00  0.00    +0.000 C 
ENDBRANCH  10  14
ENDBRANCH   4   7
BRANCH   1  16
ATOM     16  O   UNL     1      31.568  23.621  31.553  0.00  0.00    +0.000 OA
BRANCH  16  17
ATOM     17  C   UNL     1      30.217  23.319  31.206  0.00  0.00    +0.000 C 
BRANCH  17  18
ATOM     18  C   UNL     1      30.092  22.942  29.741  0.00  0.00    +0.000 C 
BRANCH  18  20
ATOM     19  C   UNL     1      29.902  24.695  28.171  0.00  0.00    +0.000 C 
ATOM     20  O   UNL     1      29.224  23.896  29.126  0.00  0.00    +0.000 OA
ENDBRANCH  18  20
ENDBRANCH  17  18
ENDBRANCH  16  17
ENDBRANCH   1  16
TORSDOF 6
ENDMDL
MODEL 4
REMARK VINA RESULT:     0.001      5.202      6.536
REMARK INTER + INTRA:          -0.856
REMARK INTER:                   0.000
REMARK INTRA:                  -0.856
REMARK UNBOUND:                -0.856
REMARK  Name = 
REMARK  8 active torsions:
REMARK  status: ('A' for Active; 'I' for Inactive)
REMARK    1  A    between atoms: C_1  and  O_2
REMARK    2  A    between atoms: O_2  and  C_3
REMARK    3  A    between atoms: C_3  and  C_4
REMARK    4  A    between atoms: C_4  and  O_5
REMARK    5  A    between atoms: O_5  and  C_6
REMARK    6  A    between atoms: C_9  and  C_12
REMARK    7  A    between atoms: C_15  and  S_19
REMARK    8  A    between atoms: S_19  and  C_20
REMARK                            x       y       z     vdW  Elec       q    Type
REMARK                         _______ _______ _______ _____ _____    ______ ____
ROOT
ATOM      1  C   UNL     1      38.603  23.302  30.022  0.00  0.00    +0.000 A 
ATOM      2  C   UNL     1      38.350  24.108  31.128  0.00  0.00    +0.000 A 
ATOM      3  C   UNL     1      38.704  23.688  32.408  0.00  0.00    +0.000 A 
ATOM      4  C   UNL     1      39.297  22.438  32.642  0.00  0.00    +0.000 A 
ATOM      5  C   UNL     1      39.547  21.634  31.516  0.00  0.00    +0.000 A 
ATOM      6  C   UNL     1      39.210  22.062  30.220  0.00  0.00    +0.000 A 
ENDROOT
BRANCH   4   7
ATOM      7  C   UNL     1      39.622  22.025  34.027  0.00  0.00    +0.000 A 
ATOM      8  C   UNL     1      40.894  22.288  34.569  0.00  0.00    +0.000 A 
ATOM      9  C   UNL     1      41.253  21.850  35.848  0.00  0.00    +0.000 A 
ATOM     10  C   UNL     1      40.346  21.154  36.651  0.00  0.00    +0.000 A 
ATOM     11  C   UNL     1      39.073  20.902  36.137  0.00  0.00    +0.000 A 
ATOM     12  C   UNL     1      38.726  21.329  34.850  0.00  0.00    +0.000 A 
ATOM     13  F   UNL     1      37.495  21.019  34.413  0.00  0.00    +0.000 F 
BRANCH  10  14
ATOM     14  S   UNL     1      40.928  20.656  38.263  0.00  0.00    +0.000 S 
ATOM     15  C   UNL     1      42.633  21.261  38.292  0.00  0.00    +0.000 C 
ENDBRANCH  10  14
ENDBRANCH   4   7
BRANCH   1  16
ATOM     16  O   UNL     1      38.303  23.636  28.724  0.00  0.00    +0.000 OA
BRANCH  16  17
ATOM     17  C   UNL     1      37.469  22.696  28.050  0.00  0.00    +0.000 C 
BRANCH  17  18
ATOM     18  C   UNL     1      36.019  22.833  28.478  0.00  0.00    +0.000 C 
BRANCH  18  20
ATOM     19  C   UNL     1      35.349  21.726  30.454  0.00  0.00    +0.000 C 
ATOM     20  O   UNL     1      35.627  21.593  29.070  0.00  0.00    +0.000 OA
ENDBRANCH  18  20
ENDBRANCH  17  18
ENDBRANCH  16  17
ENDBRANCH   1  16
TORSDOF 6
ENDMDL
MODEL 5
REMARK VINA RESULT:     0.001      4.167      6.091
REMARK INTER + INTRA:          -0.856
REMARK INTER:                   0.000
REMARK INTRA:                  -0.856
REMARK UNBOUND:                -0.856
REMARK  Name = 
REMARK  8 active torsions:
REMARK  status: ('A' for Active; 'I' for Inactive)
REMARK    1  A    between atoms: C_1  and  O_2
REMARK    2  A    between atoms: O_2  and  C_3
REMARK    3  A    between atoms: C_3  and  C_4
REMARK    4  A    between atoms: C_4  and  O_5
REMARK    5  A    between atoms: O_5  and  C_6
REMARK    6  A    between atoms: C_9  and  C_12
REMARK    7  A    between atoms: C_15  and  S_19
REMARK    8  A    between atoms: S_19  and  C_20
REMARK                            x       y       z     vdW  Elec       q    Type
REMARK                         _______ _______ _______ _____ _____    ______ ____
ROOT
ATOM      1  C   UNL     1      34.816  24.030  32.578  0.00  0.00    +0.000 A 
ATOM      2  C   UNL     1      34.402  25.346  32.396  0.00  0.00    +0.000 A 
ATOM      3  C   UNL     1      35.288  26.308  31.914  0.00  0.00    +0.000 A 
ATOM      4  C   UNL     1      36.626  26.005  31.621  0.00  0.00    +0.000 A 
ATOM      5  C   UNL     1      37.030  24.671  31.810  0.00  0.00    +0.000 A 
ATOM      6  C   UNL     1      36.135  23.693  32.277  0.00  0.00    +0.000 A 
ENDROOT
BRANCH   4   7
ATOM      7  C   UNL     1      37.535  27.072  31.145  0.00  0.00    +0.000 A 
ATOM      8  C   UNL     1      37.706  27.300  29.766  0.00  0.00    +0.000 A 
ATOM      9  C   UNL     1      38.609  28.254  29.285  0.00  0.00    +0.000 A 
ATOM     10  C   UNL     1      39.359  29.041  30.162  0.00  0.00    +0.000 A 
ATOM     11  C   UNL     1      39.187  28.843  31.532  0.00  0.00    +0.000 A 
ATOM     12  C   UNL     1      38.294  27.875  32.007  0.00  0.00    +0.000 A 
ATOM     13  F   UNL     1      38.210  27.720  33.338  0.00  0.00    +0.000 F 
BRANCH  10  14
ATOM     14  S   UNL     1      40.470  30.223  29.418  0.00  0.00    +0.000 S 
ATOM     15  C   UNL     1      40.216  29.971  27.645  0.00  0.00    +0.000 C 
ENDBRANCH  10  14
ENDBRANCH   4   7
BRANCH   1  16
ATOM     16  O   UNL     1      34.013  23.013  33.034  0.00  0.00    +0.000 OA
BRANCH  16  17
ATOM     17  C   UNL     1      34.507  22.345  34.194  0.00  0.00    +0.000 C 
BRANCH  17  18
ATOM     18  C   UNL     1      34.276  23.168  35.448  0.00  0.00    +0.000 C 
BRANCH  18  20
ATOM     19  C   UNL     1      35.861  24.837  35.973  0.00  0.00    +0.000 C 
ATOM     20  O   UNL     1      35.556  23.453  36.015  0.00  0.00    +0.000 OA
ENDBRANCH  18  20
ENDBRANCH  17  18
ENDBRANCH  16  17
ENDBRANCH   1  16
TORSDOF 6
ENDMDL
MODEL 6
REMARK VINA RESULT:     0.001      7.742      8.870
REMARK INTER + INTRA:          -0.856
REMARK INTER:                   0.000
REMARK INTRA:                  -0.856
REMARK UNBOUND:                -0.856
REMARK  Name = 
REMARK  8 active torsions:
REMARK  status: ('A' for Active; 'I' for Inactive)
REMARK    1  A    between atoms: C_1  and  O_2
REMARK    2  A    between atoms: O_2  and  C_3
REMARK    3  A    between atoms: C_3  and  C_4
REMARK    4  A    between atoms: C_4  and  O_5
REMARK    5  A    between atoms: O_5  and  C_6
REMARK    6  A    between atoms: C_9  and  C_12
REMARK    7  A    between atoms: C_15  and  S_19
REMARK    8  A    between atoms: S_19  and  C_20
REMARK                            x       y       z     vdW  Elec       q    Type
REMARK                         _______ _______ _______ _____ _____    ______ ____
ROOT
ATOM      1  C   UNL     1      39.423  33.280  37.477  0.00  0.00    +0.000 A 
ATOM      2  C   UNL     1      38.860  34.522  37.196  0.00  0.00    +0.000 A 
ATOM      3  C   UNL     1      37.814  34.636  36.283  0.00  0.00    +0.000 A 
ATOM      4  C   UNL     1      37.306  33.524  35.593  0.00  0.00    +0.000 A 
ATOM      5  C   UNL     1      37.884  32.277  35.886  0.00  0.00    +0.000 A 
ATOM      6  C   UNL     1      38.927  32.154  36.822  0.00  0.00    +0.000 A 
ENDROOT
BRANCH   4   7
ATOM      7  C   UNL     1      36.216  33.706  34.607  0.00  0.00    +0.000 A 
ATOM      8  C   UNL     1      34.870  33.576  35.000  0.00  0.00    +0.000 A 
ATOM      9  C   UNL     1      33.822  33.674  34.078  0.00  0.00    +0.000 A 
ATOM     10  C   UNL     1      34.073  33.933  32.729  0.00  0.00    +0.000 A 
ATOM     11  C   UNL     1      35.400  34.085  32.326  0.00  0.00    +0.000 A 
ATOM     12  C   UNL     1      36.445  33.970  33.250  0.00  0.00    +0.000 A 
ATOM     13  F   UNL     1      37.696  34.094  32.779  0.00  0.00    +0.000 F 
BRANCH  10  14
ATOM     14  S   UNL     1      32.648  34.037  31.660  0.00  0.00    +0.000 S 
ATOM     15  C   UNL     1      31.263  33.745  32.787  0.00  0.00    +0.000 C 
ENDBRANCH  10  14
ENDBRANCH   4   7
BRANCH   1  16
ATOM     16  O   UNL     1      40.446  33.069  38.369  0.00  0.00    +0.000 OA
BRANCH  16  17
ATOM     17  C   UNL     1      41.587  32.415  37.815  0.00  0.00    +0.000 C 
BRANCH  17  18
ATOM     18  C   UNL     1      42.429  33.373  36.992  0.00  0.00    +0.000 C 
BRANCH  18  20
ATOM     19  C   UNL     1      41.792  33.736  34.748  0.00  0.00    +0.000 C 
ATOM     20  O   UNL     1      42.461  32.875  35.654  0.00  0.00    +0.000 OA
ENDBRANCH  18  20
ENDBRANCH  17  18
ENDBRANCH  16  17
ENDBRANCH   1  16
TORSDOF 6
ENDMDL
MODEL 7
REMARK VINA RESULT:     0.001      9.483     11.202
REMARK INTER + INTRA:          -0.855
REMARK INTER:                   0.000
REMARK INTRA:                  -0.855
REMARK UNBOUND:                -0.856
REMARK  Name = 
REMARK  8 active torsions:
REMARK  status: ('A' for Active; 'I' for Inactive)
REMARK    1  A    between atoms: C_1  and  O_2
REMARK    2  A    between atoms: O_2  and  C_3
REMARK    3  A    between atoms: C_3  and  C_4
REMARK    4  A    between atoms: C_4  and  O_5
REMARK    5  A    between atoms: O_5  and  C_6
REMARK    6  A    between atoms: C_9  and  C_12
REMARK    7  A    between atoms: C_15  and  S_19
REMARK    8  A    between atoms: S_19  and  C_20
REMARK                            x       y       z     vdW  Elec       q    Type
REMARK                         _______ _______ _______ _____ _____    ______ ____
ROOT
ATOM      1  C   UNL     1      34.379  19.495  29.912  0.00  0.00    +0.000 A 
ATOM      2  C   UNL     1      33.790  20.753  29.822  0.00  0.00    +0.000 A 
ATOM      3  C   UNL     1      32.668  20.954  29.021  0.00  0.00    +0.000 A 
ATOM      4  C   UNL     1      32.105  19.920  28.258  0.00  0.00    +0.000 A 
ATOM      5  C   UNL     1      32.710  18.655  28.359  0.00  0.00    +0.000 A 
ATOM      6  C   UNL     1      33.831  18.442  29.181  0.00  0.00    +0.000 A 
ENDROOT
BRANCH   4   7
ATOM      7  C   UNL     1      30.932  20.196  27.396  0.00  0.00    +0.000 A 
ATOM      8  C   UNL     1      29.627  19.997  27.884  0.00  0.00    +0.000 A 
ATOM      9  C   UNL     1      28.502  20.183  27.073  0.00  0.00    +0.000 A 
ATOM     10  C   UNL     1      28.634  20.602  25.747  0.00  0.00    +0.000 A 
ATOM     11  C   UNL     1      29.919  20.824  25.253  0.00  0.00    +0.000 A 
ATOM     12  C   UNL     1      31.041  20.620  26.065  0.00  0.00    +0.000 A 
ATOM     13  F   UNL     1      32.246  20.821  25.508  0.00  0.00    +0.000 F 
BRANCH  10  14
ATOM     14  S   UNL     1      27.120  20.805  24.823  0.00  0.00    +0.000 S 
ATOM     15  C   UNL     1      25.840  20.363  26.022  0.00  0.00    +0.000 C 
ENDBRANCH  10  14
ENDBRANCH   4   7
BRANCH   1  16
ATOM     16  O   UNL     1      35.476  19.199  30.684  0.00  0.00    +0.000 OA
BRANCH  16  17
ATOM     17  C   UNL     1      36.566  18.623  29.964  0.00  0.00    +0.000 C 
BRANCH  17  18
ATOM     18  C   UNL     1      37.331  19.676  29.182  0.00  0.00    +0.000 C 
BRANCH  18  20
ATOM     19  C   UNL     1      36.499  20.296  27.061  0.00  0.00    +0.000 C 
ATOM     20  O   UNL     1      37.236  19.334  27.798  0.00  0.00    +0.000 OA
ENDBRANCH  18  20
ENDBRANCH  17  18
ENDBRANCH  16  17
ENDBRANCH   1  16
TORSDOF 6
ENDMDL
MODEL 8
REMARK VINA RESULT:     0.001      5.916      8.768
REMARK INTER + INTRA:          -0.855
REMARK INTER:                   0.000
REMARK INTRA:                  -0.855
REMARK UNBOUND:                -0.856
REMARK  Name = 
REMARK  8 active torsions:
REMARK  status: ('A' for Active; 'I' for Inactive)
REMARK    1  A    between atoms: C_1  and  O_2
REMARK    2  A    between atoms: O_2  and  C_3
REMARK    3  A    between atoms: C_3  and  C_4
REMARK    4  A    between atoms: C_4  and  O_5
REMARK    5  A    between atoms: O_5  and  C_6
REMARK    6  A    between atoms: C_9  and  C_12
REMARK    7  A    between atoms: C_15  and  S_19
REMARK    8  A    between atoms: S_19  and  C_20
REMARK                            x       y       z     vdW  Elec       q    Type
REMARK                         _______ _______ _______ _____ _____    ______ ____
ROOT
ATOM      1  C   UNL     1      37.391  22.361  36.282  0.00  0.00    +0.000 A 
ATOM      2  C   UNL     1      37.755  21.050  36.577  0.00  0.00    +0.000 A 
ATOM      3  C   UNL     1      38.857  20.463  35.958  0.00  0.00    +0.000 A 
ATOM      4  C   UNL     1      39.623  21.147  35.001  0.00  0.00    +0.000 A 
ATOM      5  C   UNL     1      39.244  22.471  34.713  0.00  0.00    +0.000 A 
ATOM      6  C   UNL     1      38.144  23.073  35.350  0.00  0.00    +0.000 A 
ENDROOT
BRANCH   4   7
ATOM      7  C   UNL     1      40.763  20.466  34.347  0.00  0.00    +0.000 A 
ATOM      8  C   UNL     1      42.059  20.566  34.889  0.00  0.00    +0.000 A 
ATOM      9  C   UNL     1      43.166  19.991  34.257  0.00  0.00    +0.000 A 
ATOM     10  C   UNL     1      43.022  19.267  33.071  0.00  0.00    +0.000 A 
ATOM     11  C   UNL     1      41.742  19.140  32.531  0.00  0.00    +0.000 A 
ATOM     12  C   UNL     1      40.640  19.732  33.159  0.00  0.00    +0.000 A 
ATOM     13  F   UNL     1      39.446  19.595  32.561  0.00  0.00    +0.000 F 
BRANCH  10  14
ATOM     14  S   UNL     1      44.514  18.582  32.370  0.00  0.00    +0.000 S 
ATOM     15  C   UNL     1      45.777  19.002  33.594  0.00  0.00    +0.000 C 
ENDBRANCH  10  14
ENDBRANCH   4   7
BRANCH   1  16
ATOM     16  O   UNL     1      36.332  23.025  36.850  0.00  0.00    +0.000 OA
BRANCH  16  17
ATOM     17  C   UNL     1      35.388  23.543  35.913  0.00  0.00    +0.000 C 
BRANCH  17  18
ATOM     18  C   UNL     1      34.483  22.449  35.377  0.00  0.00    +0.000 C 
BRANCH  18  20
ATOM     19  C   UNL     1      35.285  21.162  33.566  0.00  0.00    +0.000 C 
ATOM     20  O   UNL     1      34.682  22.382  33.963  0.00  0.00    +0.000 OA
ENDBRANCH  18  20
ENDBRANCH  17  18
ENDBRANCH  16  17
ENDBRANCH   1  16
TORSDOF 6
ENDMDL
MODEL 9
REMARK VINA RESULT:     0.002     10.766     12.572
REMARK INTER + INTRA:          -0.854
REMARK INTER:                   0.000
REMARK INTRA:                  -0.854
REMARK UNBOUND:                -0.856
REMARK  Name = 
REMARK  8 active torsions:
REMARK  status: ('A' for Active; 'I' for Inactive)
REMARK    1  A    between atoms: C_1  and  O_2
REMARK    2  A    between atoms: O_2  and  C_3
REMARK    3  A    between atoms: C_3  and  C_4
REMARK    4  A    between atoms: C_4  and  O_5
REMARK    5  A    between atoms: O_5  and  C_6
REMARK    6  A    between atoms: C_9  and  C_12
REMARK    7  A    between atoms: C_15  and  S_19
REMARK    8  A    between atoms: S_19  and  C_20
REMARK                            x       y       z     vdW  Elec       q    Type
REMARK                         _______ _______ _______ _____ _____    ______ ____
ROOT
ATOM      1  C   UNL     1      30.530  29.200  26.318  0.00  0.00    +0.000 A 
ATOM      2  C   UNL     1      30.425  30.052  25.222  0.00  0.00    +0.000 A 
ATOM      3  C   UNL     1      31.564  30.619  24.654  0.00  0.00    +0.000 A 
ATOM      4  C   UNL     1      32.847  30.385  25.171  0.00  0.00    +0.000 A 
ATOM      5  C   UNL     1      32.938  29.522  26.278  0.00  0.00    +0.000 A 
ATOM      6  C   UNL     1      31.793  28.932  26.842  0.00  0.00    +0.000 A 
ENDROOT
BRANCH   4   7
ATOM      7  C   UNL     1      34.021  31.041  24.551  0.00  0.00    +0.000 A 
ATOM      8  C   UNL     1      34.746  30.391  23.534  0.00  0.00    +0.000 A 
ATOM      9  C   UNL     1      35.899  30.956  22.978  0.00  0.00    +0.000 A 
ATOM     10  C   UNL     1      36.360  32.207  23.394  0.00  0.00    +0.000 A 
ATOM     11  C   UNL     1      35.641  32.874  24.386  0.00  0.00    +0.000 A 
ATOM     12  C   UNL     1      34.498  32.297  24.951  0.00  0.00    +0.000 A 
ATOM     13  F   UNL     1      33.881  32.985  25.924  0.00  0.00    +0.000 F 
BRANCH  10  14
ATOM     14  S   UNL     1      37.839  32.815  22.601  0.00  0.00    +0.000 S 
ATOM     15  C   UNL     1      38.259  31.493  21.439  0.00  0.00    +0.000 C 
ENDBRANCH  10  14
ENDBRANCH   4   7
BRANCH   1  16
ATOM     16  O   UNL     1      29.468  28.584  26.935  0.00  0.00    +0.000 OA
BRANCH  16  17
ATOM     17  C   UNL     1      29.364  28.848  28.334  0.00  0.00    +0.000 C 
BRANCH  17  18
ATOM     18  C   UNL     1      28.791  30.228  28.597  0.00  0.00    +0.000 C 
BRANCH  18  20
ATOM     19  C   UNL     1      30.279  32.061  28.558  0.00  0.00    +0.000 C 
ATOM     20  O   UNL     1      29.777  30.972  29.315  0.00  0.00    +0.000 OA
ENDBRANCH  18  20
ENDBRANCH  17  18
ENDBRANCH  16  17
ENDBRANCH   1  16
TORSDOF 6
ENDMDL
