REMARK  Name = 
REMARK  8 active torsions:
REMARK  status: ('A' for Active; 'I' for Inactive)
REMARK    1  A    between atoms: C_1  and  O_2
REMARK    2  A    between atoms: O_2  and  C_3
REMARK    3  A    between atoms: C_3  and  C_4
REMARK    4  A    between atoms: C_4  and  O_5
REMARK    5  A    between atoms: O_5  and  C_6
REMARK    6  A    between atoms: C_9  and  C_12
REMARK    7  A    between atoms: C_15  and  S_19
REMARK    8  A    between atoms: S_19  and  C_20
REMARK                            x       y       z     vdW  Elec       q    Type
REMARK                         _______ _______ _______ _____ _____    ______ ____
ROOT
ATOM      1  C   UNL     1       6.174   0.682   3.031  0.00  0.00    +0.000 A 
ATOM      2  C   UNL     1       6.763   0.223   4.206  0.00  0.00    +0.000 A 
ATOM      3  C   UNL     1       8.127   0.395   4.430  0.00  0.00    +0.000 A 
ATOM      4  C   UNL     1       8.964   1.005   3.483  0.00  0.00    +0.000 A 
ATOM      5  C   UNL     1       8.356   1.464   2.301  0.00  0.00    +0.000 A 
ATOM      6  C   UNL     1       6.976   1.310   2.079  0.00  0.00    +0.000 A 
ENDROOT
BRANCH   4   7
ATOM      7  C   UNL     1      10.414   1.132   3.756  0.00  0.00    +0.000 A 
ATOM      8  C   UNL     1      11.088   0.146   4.501  0.00  0.00    +0.000 A 
ATOM      9  C   UNL     1      12.441   0.272   4.833  0.00  0.00    +0.000 A 
ATOM     10  C   UNL     1      13.185   1.376   4.411  0.00  0.00    +0.000 A 
ATOM     11  C   UNL     1      12.538   2.353   3.654  0.00  0.00    +0.000 A 
ATOM     12  C   UNL     1      11.180   2.229   3.339  0.00  0.00    +0.000 A 
ATOM     13  F   UNL     1      10.620   3.227   2.637  0.00  0.00    +0.000 F 
BRANCH  10  14
ATOM     14  S   UNL     1      14.902   1.413   4.899  0.00  0.00    +0.000 S 
ATOM     15  C   UNL     1      15.515   2.936   4.139  0.00  0.00    +0.000 C 
ENDBRANCH  10  14
ENDBRANCH   4   7
BRANCH   1  16
ATOM     16  O   UNL     1       4.839   0.570   2.729  0.00  0.00    +0.000 OA
BRANCH  16  17
ATOM     17  C   UNL     1       4.053  -0.047   3.748  0.00  0.00    +0.000 C 
BRANCH  17  18
ATOM     18  C   UNL     1       2.588  -0.110   3.356  0.00  0.00    +0.000 C 
BRANCH  18  20
ATOM     19  C   UNL     1       0.495  -0.845   4.165  0.00  0.00    +0.000 C 
ATOM     20  O   UNL     1       1.883  -0.732   4.432  0.00  0.00    +0.000 OA
ENDBRANCH  18  20
ENDBRANCH  17  18
ENDBRANCH  16  17
ENDBRANCH   1  16
TORSDOF 6
