REMARK  Name = 
REMARK  7 active torsions:
REMARK  status: ('A' for Active; 'I' for Inactive)
REMARK    1  A    between atoms: C_1  and  C_2
REMARK    2  A    between atoms: C_2  and  C_3
REMARK    3  A    between atoms: C_2  and  C_4
REMARK    4  A    between atoms: C_2  and  O_5
REMARK    5  A    between atoms: O_5  and  C_6
REMARK    6  A    between atoms: C_10  and  C_12
REMARK    7  A    between atoms: N_15  and  C_17
REMARK                            x       y       z     vdW  Elec       q    Type
REMARK                         _______ _______ _______ _____ _____    ______ ____
ROOT
ATOM      1  C   UNL     1       4.395  -1.515  -0.099  0.00  0.00    +0.000 A 
ATOM      2  C   UNL     1       5.193  -1.005   0.910  0.00  0.00    +0.000 A 
ATOM      3  C   UNL     1       6.552  -1.293   0.885  0.00  0.00    +0.000 A 
ATOM      4  C   UNL     1       7.060  -2.099  -0.133  0.00  0.00    +0.000 A 
ATOM      5  C   UNL     1       6.179  -2.612  -1.076  0.00  0.00    +0.000 A 
ATOM      6  N   UNL     1       4.853  -2.335  -1.063  0.00  0.00    +0.000 NA
ENDROOT
BRANCH   5   7
ATOM      7  C   UNL     1       6.639  -3.453  -2.167  0.00  0.00    +0.000 A 
ATOM      8  C   UNL     1       7.899  -3.999  -2.469  0.00  0.00    +0.000 A 
ATOM      9  N   UNL     1       7.902  -4.714  -3.597  0.00  0.00    +0.000 NA
ATOM     10  N   UNL     1       6.627  -4.624  -4.060  0.00  0.00    +0.000 N 
ATOM     11  C   UNL     1       5.840  -3.891  -3.204  0.00  0.00    +0.000 A 
BRANCH  10  12
ATOM     12  C   UNL     1       6.251  -5.225  -5.294  0.00  0.00    +0.000 A 
ATOM     13  C   UNL     1       7.203  -5.950  -6.028  0.00  0.00    +0.000 A 
ATOM     14  C   UNL     1       6.855  -6.527  -7.252  0.00  0.00    +0.000 A 
ATOM     15  C   UNL     1       5.560  -6.383  -7.750  0.00  0.00    +0.000 A 
ATOM     16  C   UNL     1       4.612  -5.667  -7.026  0.00  0.00    +0.000 A 
ATOM     17  C   UNL     1       4.950  -5.090  -5.798  0.00  0.00    +0.000 A 
ENDBRANCH  10  12
ENDBRANCH   5   7
BRANCH   1  18
ATOM     18  O   UNL     1       3.073  -1.127  -0.093  0.00  0.00    +0.000 OA
BRANCH  18  20
ATOM     19  C   UNL     1       1.871  -2.594  -1.663  0.00  0.00    +0.000 C 
ATOM     20  C   UNL     1       2.337  -1.169  -1.334  0.00  0.00    +0.000 C 
ATOM     21  C   UNL     1       3.071  -0.502  -2.511  0.00  0.00    +0.000 C 
ATOM     22  C   UNL     1       1.074  -0.324  -1.065  0.00  0.00    +0.000 C 
ENDBRANCH  18  20
ENDBRANCH   1  18
TORSDOF 4
