REMARK  Name = 
REMARK  5 active torsions:
REMARK  status: ('A' for Active; 'I' for Inactive)
REMARK    1  A    between atoms: C_1  and  C_2
REMARK    2  A    between atoms: C_2  and  C_3
REMARK    3  A    between atoms: C_3  and  O_4
REMARK    4  A    between atoms: O_4  and  C_5
REMARK    5  A    between atoms: C_8  and  C_11
REMARK                            x       y       z     vdW  Elec       q    Type
REMARK                         _______ _______ _______ _____ _____    ______ ____
ROOT
ATOM      1  C   UNL     1       7.691   4.883   3.636  0.00  0.00    +0.000 A 
ATOM      2  C   UNL     1       8.404   5.886   2.939  0.00  0.00    +0.000 A 
ATOM      3  C   UNL     1       9.206   6.818   3.595  0.00  0.00    +0.000 A 
ATOM      4  C   UNL     1       9.274   6.802   4.982  0.00  0.00    +0.000 A 
ATOM      5  C   UNL     1       9.910   7.878   5.715  0.00  0.00    +0.000 A 
ATOM      6  C   UNL     1       9.881   7.854   7.049  0.00  0.00    +0.000 A 
ATOM      7  C   UNL     1       9.335   6.714   7.805  0.00  0.00    +0.000 A 
ATOM      8  O   UNL     1       9.442   6.671   9.028  0.00  0.00    +0.000 OA
ATOM      9  O   UNL     1       8.701   5.714   7.081  0.00  0.00    +0.000 OA
ATOM     10  C   UNL     1       8.617   5.789   5.678  0.00  0.00    +0.000 A 
ATOM     11  C   UNL     1       7.833   4.833   5.028  0.00  0.00    +0.000 A 
ENDROOT
BRANCH   1  15
ATOM     12  C   UNL     1       5.279   2.178   1.293  0.00  0.00    +0.000 A 
ATOM     13  C   UNL     1       6.510   2.643   0.840  0.00  0.00    +0.000 A 
ATOM     14  C   UNL     1       7.285   3.487   1.628  0.00  0.00    +0.000 A 
ATOM     15  C   UNL     1       6.852   3.929   2.884  0.00  0.00    +0.000 A 
ATOM     16  C   UNL     1       5.606   3.460   3.337  0.00  0.00    +0.000 A 
ATOM     17  C   UNL     1       4.831   2.587   2.546  0.00  0.00    +0.000 A 
BRANCH  12  18
ATOM     18  O   UNL     1       4.461   1.331   0.582  0.00  0.00    +0.000 OA
BRANCH  18  19
ATOM     19  C   UNL     1       5.009   0.921  -0.675  0.00  0.00    +0.000 C 
BRANCH  19  21
ATOM     20  C   UNL     1       4.712  -0.480  -2.710  0.00  0.00    +0.000 C 
ATOM     21  C   UNL     1       4.092  -0.064  -1.384  0.00  0.00    +0.000 C 
ENDBRANCH  19  21
ENDBRANCH  18  19
ENDBRANCH  12  18
ENDBRANCH   1  15
TORSDOF 4
