REMARK  Name = 
REMARK  2 active torsions:
REMARK  status: ('A' for Active; 'I' for Inactive)
REMARK    1  A    between atoms: C_4  and  N_7
REMARK    2  A    between atoms: C_9  and  C_12
REMARK                            x       y       z     vdW  Elec       q    Type
REMARK                         _______ _______ _______ _____ _____    ______ ____
ROOT
ATOM      1  N   UNL     1      -2.776   0.472  -0.136  0.00  0.00    +0.000 N 
ATOM      2  C   UNL     1      -3.766  -0.123   0.598  0.00  0.00    +0.000 A 
ATOM      3  C   UNL     1      -4.983   0.325   0.131  0.00  0.00    +0.000 A 
ATOM      4  C   UNL     1      -4.622   1.238  -0.874  0.00  0.00    +0.000 A 
ATOM      5  N   UNL     1      -3.308   1.353  -1.033  0.00  0.00    +0.000 NA
ENDROOT
BRANCH   3   6
ATOM      6  C   UNL     1      -6.284  -0.095   0.609  0.00  0.00    +0.000 A 
ATOM      7  C   UNL     1      -6.434  -0.914   1.723  0.00  0.00    +0.000 A 
ATOM      8  C   UNL     1      -7.709  -1.110   2.258  0.00  0.00    +0.000 A 
ATOM      9  C   UNL     1      -7.888  -1.458   3.602  0.00  0.00    +0.000 A 
ATOM     10  C   UNL     1      -9.176  -1.601   4.103  0.00  0.00    +0.000 A 
ATOM     11  C   UNL     1     -10.247  -1.580   3.221  0.00  0.00    +0.000 A 
ATOM     12  C   UNL     1     -10.072  -1.226   1.890  0.00  0.00    +0.000 A 
ATOM     13  C   UNL     1      -8.824  -0.826   1.450  0.00  0.00    +0.000 A 
ATOM     14  N   UNL     1      -8.701  -0.099   0.331  0.00  0.00    +0.000 NA
ATOM     15  C   UNL     1      -7.461   0.356   0.020  0.00  0.00    +0.000 A 
ATOM     16  F   UNL     1     -11.480  -1.828   3.681  0.00  0.00    +0.000 F 
ENDBRANCH   3   6
BRANCH   1  20
ATOM     17  C   UNL     1       1.408  -0.110   0.028  0.00  0.00    +0.000 A 
ATOM     18  C   UNL     1       0.578  -0.841   0.873  0.00  0.00    +0.000 A 
ATOM     19  C   UNL     1      -0.812  -0.656   0.837  0.00  0.00    +0.000 A 
ATOM     20  C   UNL     1      -1.374   0.273  -0.053  0.00  0.00    +0.000 A 
ATOM     21  C   UNL     1      -0.524   1.010  -0.909  0.00  0.00    +0.000 A 
ATOM     22  C   UNL     1       0.862   0.807  -0.855  0.00  0.00    +0.000 A 
ENDBRANCH   1  20
TORSDOF 2
