MODEL 1
REMARK VINA RESULT:    -0.000      0.000      0.000
REMARK INTER + INTRA:          -0.808
REMARK INTER:                   0.000
REMARK INTRA:                  -0.808
REMARK UNBOUND:                -0.807
REMARK  Name = 
REMARK  6 active torsions:
REMARK  status: ('A' for Active; 'I' for Inactive)
REMARK    1  A    between atoms: C_1  and  C_2
REMARK    2  A    between atoms: C_2  and  C_3
REMARK    3  A    between atoms: C_3  and  O_4
REMARK    4  A    between atoms: O_4  and  C_5
REMARK    5  A    between atoms: C_8  and  C_11
REMARK    6  A    between atoms: C_13  and  C_20
REMARK                            x       y       z     vdW  Elec       q    Type
REMARK                         _______ _______ _______ _____ _____    ______ ____
ROOT
ATOM      1  C   UNL     1      -3.582   2.452   0.273  0.00  0.00    +0.000 A 
ATOM      2  C   UNL     1      -3.689   3.491  -0.655  0.00  0.00    +0.000 A 
ATOM      3  C   UNL     1      -4.907   4.130  -0.876  0.00  0.00    +0.000 A 
ATOM      4  C   UNL     1      -6.044   3.736  -0.172  0.00  0.00    +0.000 A 
ATOM      5  C   UNL     1      -5.947   2.700   0.762  0.00  0.00    +0.000 A 
ATOM      6  C   UNL     1      -4.720   2.062   0.984  0.00  0.00    +0.000 A 
ENDROOT
BRANCH   4   7
ATOM      7  C   UNL     1      -7.315   4.422  -0.455  0.00  0.00    +0.000 A 
ATOM      8  C   UNL     1      -8.015   4.005  -1.537  0.00  0.00    +0.000 A 
ATOM      9  C   UNL     1      -9.246   4.661  -1.973  0.00  0.00    +0.000 A 
ATOM     10  C   UNL     1      -9.682   5.723  -1.271  0.00  0.00    +0.000 A 
ATOM     11  N   UNL     1      -8.961   6.157  -0.163  0.00  0.00    +0.000 N 
ATOM     12  C   UNL     1      -7.791   5.555   0.283  0.00  0.00    +0.000 A 
ATOM     13  N   UNL     1      -7.309   6.183   1.339  0.00  0.00    +0.000 NA
ATOM     14  C   UNL     1      -8.187   7.204   1.593  0.00  0.00    +0.000 A 
ATOM     15  C   UNL     1      -9.213   7.210   0.679  0.00  0.00    +0.000 A 
ATOM     16  C   UNL     1      -9.957   4.145  -3.183  0.00  0.00    +0.000 C 
ENDBRANCH   4   7
BRANCH   1  17
ATOM     17  O   UNL     1      -2.423   1.769   0.551  0.00  0.00    +0.000 OA
BRANCH  17  18
ATOM     18  C   UNL     1      -2.033   1.800   1.927  0.00  0.00    +0.000 C 
BRANCH  18  20
ATOM     19  C   UNL     1      -2.155   3.847   3.345  0.00  0.00    +0.000 C 
ATOM     20  C   UNL     1      -1.356   3.117   2.274  0.00  0.00    +0.000 C 
ENDBRANCH  18  20
ENDBRANCH  17  18
ENDBRANCH   1  17
TORSDOF 4
ENDMDL
MODEL 2
REMARK VINA RESULT:    -0.000      5.853      9.209
REMARK INTER + INTRA:          -0.808
REMARK INTER:                   0.000
REMARK INTRA:                  -0.808
REMARK UNBOUND:                -0.807
REMARK  Name = 
REMARK  6 active torsions:
REMARK  status: ('A' for Active; 'I' for Inactive)
REMARK    1  A    between atoms: C_1  and  C_2
REMARK    2  A    between atoms: C_2  and  C_3
REMARK    3  A    between atoms: C_3  and  O_4
REMARK    4  A    between atoms: O_4  and  C_5
REMARK    5  A    between atoms: C_8  and  C_11
REMARK    6  A    between atoms: C_13  and  C_20
REMARK                            x       y       z     vdW  Elec       q    Type
REMARK                         _______ _______ _______ _____ _____    ______ ____
ROOT
ATOM      1  C   UNL     1      -2.402   4.572   2.060  0.00  0.00    +0.000 A 
ATOM      2  C   UNL     1      -1.778   5.801   1.831  0.00  0.00    +0.000 A 
ATOM      3  C   UNL     1      -1.025   6.417   2.829  0.00  0.00    +0.000 A 
ATOM      4  C   UNL     1      -0.887   5.814   4.078  0.00  0.00    +0.000 A 
ATOM      5  C   UNL     1      -1.504   4.582   4.316  0.00  0.00    +0.000 A 
ATOM      6  C   UNL     1      -2.258   3.964   3.310  0.00  0.00    +0.000 A 
ENDROOT
BRANCH   4   7
ATOM      7  C   UNL     1      -0.103   6.512   5.110  0.00  0.00    +0.000 A 
ATOM      8  C   UNL     1      -0.730   7.490   5.806  0.00  0.00    +0.000 A 
ATOM      9  C   UNL     1      -0.038   8.313   6.795  0.00  0.00    +0.000 A 
ATOM     10  C   UNL     1       1.273   8.089   7.002  0.00  0.00    +0.000 A 
ATOM     11  N   UNL     1       1.920   7.089   6.283  0.00  0.00    +0.000 N 
ATOM     12  C   UNL     1       1.293   6.284   5.341  0.00  0.00    +0.000 A 
ATOM     13  N   UNL     1       2.148   5.436   4.799  0.00  0.00    +0.000 NA
ATOM     14  C   UNL     1       3.349   5.686   5.409  0.00  0.00    +0.000 A 
ATOM     15  C   UNL     1       3.235   6.702   6.327  0.00  0.00    +0.000 A 
ATOM     16  C   UNL     1      -0.800   9.379   7.517  0.00  0.00    +0.000 C 
ENDBRANCH   4   7
BRANCH   1  17
ATOM     17  O   UNL     1      -3.162   3.897   1.135  0.00  0.00    +0.000 OA
BRANCH  17  18
ATOM     18  C   UNL     1      -2.711   2.569   0.855  0.00  0.00    +0.000 C 
BRANCH  18  20
ATOM     19  C   UNL     1      -0.310   1.965   0.562  0.00  0.00    +0.000 C 
ATOM     20  C   UNL     1      -1.530   2.583  -0.104  0.00  0.00    +0.000 C 
ENDBRANCH  18  20
ENDBRANCH  17  18
ENDBRANCH   1  17
TORSDOF 4
ENDMDL
MODEL 3
REMARK VINA RESULT:    -0.000      8.926     11.378
REMARK INTER + INTRA:          -0.808
REMARK INTER:                   0.000
REMARK INTRA:                  -0.808
REMARK UNBOUND:                -0.807
REMARK  Name = 
REMARK  6 active torsions:
REMARK  status: ('A' for Active; 'I' for Inactive)
REMARK    1  A    between atoms: C_1  and  C_2
REMARK    2  A    between atoms: C_2  and  C_3
REMARK    3  A    between atoms: C_3  and  O_4
REMARK    4  A    between atoms: O_4  and  C_5
REMARK    5  A    between atoms: C_8  and  C_11
REMARK    6  A    between atoms: C_13  and  C_20
REMARK                            x       y       z     vdW  Elec       q    Type
REMARK                         _______ _______ _______ _____ _____    ______ ____
ROOT
ATOM      1  C   UNL     1      -2.667   6.524  -5.317  0.00  0.00    +0.000 A 
ATOM      2  C   UNL     1      -1.431   6.353  -4.689  0.00  0.00    +0.000 A 
ATOM      3  C   UNL     1      -0.345   5.822  -5.382  0.00  0.00    +0.000 A 
ATOM      4  C   UNL     1      -0.479   5.449  -6.719  0.00  0.00    +0.000 A 
ATOM      5  C   UNL     1      -1.711   5.621  -7.358  0.00  0.00    +0.000 A 
ATOM      6  C   UNL     1      -2.800   6.157  -6.659  0.00  0.00    +0.000 A 
ENDROOT
BRANCH   4   7
ATOM      7  C   UNL     1       0.687   4.870  -7.404  0.00  0.00    +0.000 A 
ATOM      8  C   UNL     1       0.929   3.552  -7.208  0.00  0.00    +0.000 A 
ATOM      9  C   UNL     1       2.102   2.881  -7.762  0.00  0.00    +0.000 A 
ATOM     10  C   UNL     1       2.971   3.613  -8.483  0.00  0.00    +0.000 A 
ATOM     11  N   UNL     1       2.728   4.968  -8.680  0.00  0.00    +0.000 N 
ATOM     12  C   UNL     1       1.622   5.638  -8.174  0.00  0.00    +0.000 A 
ATOM     13  N   UNL     1       1.655   6.917  -8.497  0.00  0.00    +0.000 NA
ATOM     14  C   UNL     1       2.796   7.080  -9.238  0.00  0.00    +0.000 A 
ATOM     15  C   UNL     1       3.476   5.893  -9.364  0.00  0.00    +0.000 A 
ATOM     16  C   UNL     1       2.301   1.423  -7.492  0.00  0.00    +0.000 C 
ENDBRANCH   4   7
BRANCH   1  17
ATOM     17  O   UNL     1      -3.788   7.038  -4.709  0.00  0.00    +0.000 OA
BRANCH  17  18
ATOM     18  C   UNL     1      -4.340   8.186  -5.359  0.00  0.00    +0.000 C 
BRANCH  18  20
ATOM     19  C   UNL     1      -2.956  10.050  -6.268  0.00  0.00    +0.000 C 
ATOM     20  C   UNL     1      -3.556   9.442  -5.008  0.00  0.00    +0.000 C 
ENDBRANCH  18  20
ENDBRANCH  17  18
ENDBRANCH   1  17
TORSDOF 4
ENDMDL
MODEL 4
REMARK VINA RESULT:    -0.000      7.763     10.822
REMARK INTER + INTRA:          -0.808
REMARK INTER:                   0.000
REMARK INTRA:                  -0.808
REMARK UNBOUND:                -0.807
REMARK  Name = 
REMARK  6 active torsions:
REMARK  status: ('A' for Active; 'I' for Inactive)
REMARK    1  A    between atoms: C_1  and  C_2
REMARK    2  A    between atoms: C_2  and  C_3
REMARK    3  A    between atoms: C_3  and  O_4
REMARK    4  A    between atoms: O_4  and  C_5
REMARK    5  A    between atoms: C_8  and  C_11
REMARK    6  A    between atoms: C_13  and  C_20
REMARK                            x       y       z     vdW  Elec       q    Type
REMARK                         _______ _______ _______ _____ _____    ______ ____
ROOT
ATOM      1  C   UNL     1      -1.919   4.534  -3.399  0.00  0.00    +0.000 A 
ATOM      2  C   UNL     1      -1.344   5.779  -3.662  0.00  0.00    +0.000 A 
ATOM      3  C   UNL     1      -0.010   5.882  -4.052  0.00  0.00    +0.000 A 
ATOM      4  C   UNL     1       0.774   4.737  -4.182  0.00  0.00    +0.000 A 
ATOM      5  C   UNL     1       0.207   3.485  -3.926  0.00  0.00    +0.000 A 
ATOM      6  C   UNL     1      -1.136   3.385  -3.536  0.00  0.00    +0.000 A 
ENDROOT
BRANCH   4   7
ATOM      7  C   UNL     1       2.184   4.894  -4.573  0.00  0.00    +0.000 A 
ATOM      8  C   UNL     1       3.065   5.215  -3.595  0.00  0.00    +0.000 A 
ATOM      9  C   UNL     1       4.475   5.483  -3.868  0.00  0.00    +0.000 A 
ATOM     10  C   UNL     1       4.898   5.416  -5.144  0.00  0.00    +0.000 A 
ATOM     11  N   UNL     1       3.994   5.094  -6.150  0.00  0.00    +0.000 N 
ATOM     12  C   UNL     1       2.649   4.827  -5.927  0.00  0.00    +0.000 A 
ATOM     13  N   UNL     1       2.023   4.571  -7.061  0.00  0.00    +0.000 NA
ATOM     14  C   UNL     1       2.980   4.659  -8.037  0.00  0.00    +0.000 A 
ATOM     15  C   UNL     1       4.203   4.982  -7.502  0.00  0.00    +0.000 A 
ATOM     16  C   UNL     1       5.381   5.838  -2.732  0.00  0.00    +0.000 C 
ENDBRANCH   4   7
BRANCH   1  17
ATOM     17  O   UNL     1      -3.223   4.342  -3.009  0.00  0.00    +0.000 OA
BRANCH  17  18
ATOM     18  C   UNL     1      -3.974   3.475  -3.863  0.00  0.00    +0.000 C 
BRANCH  18  20
ATOM     19  C   UNL     1      -3.851   3.551  -6.352  0.00  0.00    +0.000 C 
ATOM     20  C   UNL     1      -4.441   4.208  -5.113  0.00  0.00    +0.000 C 
ENDBRANCH  18  20
ENDBRANCH  17  18
ENDBRANCH   1  17
TORSDOF 4
ENDMDL
MODEL 5
REMARK VINA RESULT:    -0.000      9.881     12.720
REMARK INTER + INTRA:          -0.808
REMARK INTER:                   0.000
REMARK INTRA:                  -0.808
REMARK UNBOUND:                -0.807
REMARK  Name = 
REMARK  6 active torsions:
REMARK  status: ('A' for Active; 'I' for Inactive)
REMARK    1  A    between atoms: C_1  and  C_2
REMARK    2  A    between atoms: C_2  and  C_3
REMARK    3  A    between atoms: C_3  and  O_4
REMARK    4  A    between atoms: O_4  and  C_5
REMARK    5  A    between atoms: C_8  and  C_11
REMARK    6  A    between atoms: C_13  and  C_20
REMARK                            x       y       z     vdW  Elec       q    Type
REMARK                         _______ _______ _______ _____ _____    ______ ____
ROOT
ATOM      1  C   UNL     1       1.216   2.226  -5.116  0.00  0.00    +0.000 A 
ATOM      2  C   UNL     1       2.596   2.028  -5.036  0.00  0.00    +0.000 A 
ATOM      3  C   UNL     1       3.120   0.862  -4.481  0.00  0.00    +0.000 A 
ATOM      4  C   UNL     1       2.269  -0.127  -3.992  0.00  0.00    +0.000 A 
ATOM      5  C   UNL     1       0.885   0.060  -4.071  0.00  0.00    +0.000 A 
ATOM      6  C   UNL     1       0.362   1.232  -4.632  0.00  0.00    +0.000 A 
ENDROOT
BRANCH   4   7
ATOM      7  C   UNL     1       2.866  -1.331  -3.392  0.00  0.00    +0.000 A 
ATOM      8  C   UNL     1       3.273  -1.243  -2.104  0.00  0.00    +0.000 A 
ATOM      9  C   UNL     1       3.958  -2.339  -1.423  0.00  0.00    +0.000 A 
ATOM     10  C   UNL     1       4.196  -3.467  -2.117  0.00  0.00    +0.000 A 
ATOM     11  N   UNL     1       3.784  -3.557  -3.442  0.00  0.00    +0.000 N 
ATOM     12  C   UNL     1       3.125  -2.539  -4.119  0.00  0.00    +0.000 A 
ATOM     13  N   UNL     1       2.871  -2.887  -5.367  0.00  0.00    +0.000 NA
ATOM     14  C   UNL     1       3.361  -4.159  -5.501  0.00  0.00    +0.000 A 
ATOM     15  C   UNL     1       3.930  -4.595  -4.328  0.00  0.00    +0.000 A 
ATOM     16  C   UNL     1       4.384  -2.160  -0.000  0.00  0.00    +0.000 C 
ENDBRANCH   4   7
BRANCH   1  17
ATOM     17  O   UNL     1       0.616   3.344  -5.645  0.00  0.00    +0.000 OA
BRANCH  17  18
ATOM     18  C   UNL     1      -0.292   3.076  -6.717  0.00  0.00    +0.000 C 
BRANCH  18  20
ATOM     19  C   UNL     1       0.174   1.439  -8.539  0.00  0.00    +0.000 C 
ATOM     20  C   UNL     1       0.456   2.842  -8.022  0.00  0.00    +0.000 C 
ENDBRANCH  18  20
ENDBRANCH  17  18
ENDBRANCH   1  17
TORSDOF 4
ENDMDL
MODEL 6
REMARK VINA RESULT:    -0.000      6.711      8.515
REMARK INTER + INTRA:          -0.807
REMARK INTER:                   0.000
REMARK INTRA:                  -0.807
REMARK UNBOUND:                -0.807
REMARK  Name = 
REMARK  6 active torsions:
REMARK  status: ('A' for Active; 'I' for Inactive)
REMARK    1  A    between atoms: C_1  and  C_2
REMARK    2  A    between atoms: C_2  and  C_3
REMARK    3  A    between atoms: C_3  and  O_4
REMARK    4  A    between atoms: O_4  and  C_5
REMARK    5  A    between atoms: C_8  and  C_11
REMARK    6  A    between atoms: C_13  and  C_20
REMARK                            x       y       z     vdW  Elec       q    Type
REMARK                         _______ _______ _______ _____ _____    ______ ____
ROOT
ATOM      1  C   UNL     1      -4.055  -4.338  -4.596  0.00  0.00    +0.000 A 
ATOM      2  C   UNL     1      -4.521  -4.074  -3.306  0.00  0.00    +0.000 A 
ATOM      3  C   UNL     1      -4.582  -2.768  -2.822  0.00  0.00    +0.000 A 
ATOM      4  C   UNL     1      -4.174  -1.703  -3.622  0.00  0.00    +0.000 A 
ATOM      5  C   UNL     1      -3.710  -1.957  -4.917  0.00  0.00    +0.000 A 
ATOM      6  C   UNL     1      -3.652  -3.270  -5.401  0.00  0.00    +0.000 A 
ENDROOT
BRANCH   4   7
ATOM      7  C   UNL     1      -4.233  -0.344  -3.062  0.00  0.00    +0.000 A 
ATOM      8  C   UNL     1      -3.204   0.044  -2.271  0.00  0.00    +0.000 A 
ATOM      9  C   UNL     1      -3.187   1.335  -1.586  0.00  0.00    +0.000 A 
ATOM     10  C   UNL     1      -4.243   2.153  -1.748  0.00  0.00    +0.000 A 
ATOM     11  N   UNL     1      -5.303   1.754  -2.554  0.00  0.00    +0.000 N 
ATOM     12  C   UNL     1      -5.351   0.538  -3.225  0.00  0.00    +0.000 A 
ATOM     13  N   UNL     1      -6.479   0.414  -3.899  0.00  0.00    +0.000 NA
ATOM     14  C   UNL     1      -7.172   1.574  -3.674  0.00  0.00    +0.000 A 
ATOM     15  C   UNL     1      -6.468   2.416  -2.847  0.00  0.00    +0.000 A 
ATOM     16  C   UNL     1      -2.016   1.686  -0.723  0.00  0.00    +0.000 C 
ENDBRANCH   4   7
BRANCH   1  17
ATOM     17  O   UNL     1      -3.960  -5.592  -5.151  0.00  0.00    +0.000 OA
BRANCH  17  18
ATOM     18  C   UNL     1      -4.681  -5.753  -6.375  0.00  0.00    +0.000 C 
BRANCH  18  20
ATOM     19  C   UNL     1      -6.973  -4.846  -6.752  0.00  0.00    +0.000 C 
ATOM     20  C   UNL     1      -6.165  -5.966  -6.113  0.00  0.00    +0.000 C 
ENDBRANCH  18  20
ENDBRANCH  17  18
ENDBRANCH   1  17
TORSDOF 4
ENDMDL
MODEL 7
REMARK VINA RESULT:    -0.000      8.307     10.996
REMARK INTER + INTRA:          -0.807
REMARK INTER:                   0.000
REMARK INTRA:                  -0.807
REMARK UNBOUND:                -0.807
REMARK  Name = 
REMARK  6 active torsions:
REMARK  status: ('A' for Active; 'I' for Inactive)
REMARK    1  A    between atoms: C_1  and  C_2
REMARK    2  A    between atoms: C_2  and  C_3
REMARK    3  A    between atoms: C_3  and  O_4
REMARK    4  A    between atoms: O_4  and  C_5
REMARK    5  A    between atoms: C_8  and  C_11
REMARK    6  A    between atoms: C_13  and  C_20
REMARK                            x       y       z     vdW  Elec       q    Type
REMARK                         _______ _______ _______ _____ _____    ______ ____
ROOT
ATOM      1  C   UNL     1       2.931  -1.518  -0.678  0.00  0.00    +0.000 A 
ATOM      2  C   UNL     1       3.471  -0.445   0.034  0.00  0.00    +0.000 A 
ATOM      3  C   UNL     1       2.961  -0.086   1.281  0.00  0.00    +0.000 A 
ATOM      4  C   UNL     1       1.897  -0.795   1.835  0.00  0.00    +0.000 A 
ATOM      5  C   UNL     1       1.353  -1.874   1.133  0.00  0.00    +0.000 A 
ATOM      6  C   UNL     1       1.869  -2.234  -0.119  0.00  0.00    +0.000 A 
ENDROOT
BRANCH   4   7
ATOM      7  C   UNL     1       1.375  -0.366   3.143  0.00  0.00    +0.000 A 
ATOM      8  C   UNL     1       0.502   0.670   3.150  0.00  0.00    +0.000 A 
ATOM      9  C   UNL     1      -0.020   1.245   4.388  0.00  0.00    +0.000 A 
ATOM     10  C   UNL     1       0.399   0.723   5.556  0.00  0.00    +0.000 A 
ATOM     11  N   UNL     1       1.300  -0.336   5.550  0.00  0.00    +0.000 N 
ATOM     12  C   UNL     1       1.812  -0.911   4.394  0.00  0.00    +0.000 A 
ATOM     13  N   UNL     1       2.659  -1.882   4.683  0.00  0.00    +0.000 NA
ATOM     14  C   UNL     1       2.688  -1.949   6.051  0.00  0.00    +0.000 A 
ATOM     15  C   UNL     1       1.860  -1.005   6.609  0.00  0.00    +0.000 A 
ATOM     16  C   UNL     1      -0.975   2.393   4.311  0.00  0.00    +0.000 C 
ENDBRANCH   4   7
BRANCH   1  17
ATOM     17  O   UNL     1       3.371  -1.938  -1.910  0.00  0.00    +0.000 OA
BRANCH  17  18
ATOM     18  C   UNL     1       3.777  -3.309  -1.958  0.00  0.00    +0.000 C 
BRANCH  18  20
ATOM     19  C   UNL     1       5.128  -4.406  -0.173  0.00  0.00    +0.000 C 
ATOM     20  C   UNL     1       5.175  -3.486  -1.384  0.00  0.00    +0.000 C 
ENDBRANCH  18  20
ENDBRANCH  17  18
ENDBRANCH   1  17
TORSDOF 4
ENDMDL
MODEL 8
REMARK VINA RESULT:     0.000      9.363     12.901
REMARK INTER + INTRA:          -0.807
REMARK INTER:                   0.000
REMARK INTRA:                  -0.807
REMARK UNBOUND:                -0.807
REMARK  Name = 
REMARK  6 active torsions:
REMARK  status: ('A' for Active; 'I' for Inactive)
REMARK    1  A    between atoms: C_1  and  C_2
REMARK    2  A    between atoms: C_2  and  C_3
REMARK    3  A    between atoms: C_3  and  O_4
REMARK    4  A    between atoms: O_4  and  C_5
REMARK    5  A    between atoms: C_8  and  C_11
REMARK    6  A    between atoms: C_13  and  C_20
REMARK                            x       y       z     vdW  Elec       q    Type
REMARK                         _______ _______ _______ _____ _____    ______ ____
ROOT
ATOM      1  C   UNL     1       7.530  -2.326   0.747  0.00  0.00    +0.000 A 
ATOM      2  C   UNL     1       6.661  -3.004   1.604  0.00  0.00    +0.000 A 
ATOM      3  C   UNL     1       5.586  -2.346   2.199  0.00  0.00    +0.000 A 
ATOM      4  C   UNL     1       5.365  -0.993   1.949  0.00  0.00    +0.000 A 
ATOM      5  C   UNL     1       6.228  -0.305   1.090  0.00  0.00    +0.000 A 
ATOM      6  C   UNL     1       7.306  -0.970   0.491  0.00  0.00    +0.000 A 
ENDROOT
BRANCH   4   7
ATOM      7  C   UNL     1       4.234  -0.333   2.619  0.00  0.00    +0.000 A 
ATOM      8  C   UNL     1       4.424   0.077   3.896  0.00  0.00    +0.000 A 
ATOM      9  C   UNL     1       3.353   0.666   4.696  0.00  0.00    +0.000 A 
ATOM     10  C   UNL     1       2.136   0.790   4.136  0.00  0.00    +0.000 A 
ATOM     11  N   UNL     1       1.937   0.364   2.827  0.00  0.00    +0.000 N 
ATOM     12  C   UNL     1       2.932  -0.195   2.035  0.00  0.00    +0.000 A 
ATOM     13  N   UNL     1       2.461  -0.526   0.847  0.00  0.00    +0.000 NA
ATOM     14  C   UNL     1       1.139  -0.164   0.861  0.00  0.00    +0.000 A 
ATOM     15  C   UNL     1       0.792   0.385   2.072  0.00  0.00    +0.000 A 
ATOM     16  C   UNL     1       3.642   1.087   6.103  0.00  0.00    +0.000 C 
ENDBRANCH   4   7
BRANCH   1  17
ATOM     17  O   UNL     1       8.613  -2.895   0.120  0.00  0.00    +0.000 OA
BRANCH  17  18
ATOM     18  C   UNL     1       8.599  -2.780  -1.305  0.00  0.00    +0.000 C 
BRANCH  18  20
ATOM     19  C   UNL     1       6.556  -3.123  -2.693  0.00  0.00    +0.000 C 
ATOM     20  C   UNL     1       7.674  -3.816  -1.929  0.00  0.00    +0.000 C 
ENDBRANCH  18  20
ENDBRANCH  17  18
ENDBRANCH   1  17
TORSDOF 4
ENDMDL
MODEL 9
REMARK VINA RESULT:     0.000     10.655     11.366
REMARK INTER + INTRA:          -0.807
REMARK INTER:                   0.000
REMARK INTRA:                  -0.807
REMARK UNBOUND:                -0.807
REMARK  Name = 
REMARK  6 active torsions:
REMARK  status: ('A' for Active; 'I' for Inactive)
REMARK    1  A    between atoms: C_1  and  C_2
REMARK    2  A    between atoms: C_2  and  C_3
REMARK    3  A    between atoms: C_3  and  O_4
REMARK    4  A    between atoms: O_4  and  C_5
REMARK    5  A    between atoms: C_8  and  C_11
REMARK    6  A    between atoms: C_13  and  C_20
REMARK                            x       y       z     vdW  Elec       q    Type
REMARK                         _______ _______ _______ _____ _____    ______ ____
ROOT
ATOM      1  C   UNL     1       2.785  -3.022   4.481  0.00  0.00    +0.000 A 
ATOM      2  C   UNL     1       3.879  -3.103   3.617  0.00  0.00    +0.000 A 
ATOM      3  C   UNL     1       3.916  -2.359   2.439  0.00  0.00    +0.000 A 
ATOM      4  C   UNL     1       2.853  -1.522   2.103  0.00  0.00    +0.000 A 
ATOM      5  C   UNL     1       1.754  -1.431   2.964  0.00  0.00    +0.000 A 
ATOM      6  C   UNL     1       1.722  -2.179   4.149  0.00  0.00    +0.000 A 
ENDROOT
BRANCH   4   7
ATOM      7  C   UNL     1       2.923  -0.774   0.838  0.00  0.00    +0.000 A 
ATOM      8  C   UNL     1       2.570  -1.435  -0.291  0.00  0.00    +0.000 A 
ATOM      9  C   UNL     1       2.679  -0.831  -1.617  0.00  0.00    +0.000 A 
ATOM     10  C   UNL     1       3.159   0.424  -1.706  0.00  0.00    +0.000 A 
ATOM     11  N   UNL     1       3.527   1.101  -0.548  0.00  0.00    +0.000 N 
ATOM     12  C   UNL     1       3.432   0.561   0.728  0.00  0.00    +0.000 A 
ATOM     13  N   UNL     1       3.868   1.414   1.636  0.00  0.00    +0.000 NA
ATOM     14  C   UNL     1       4.241   2.534   0.940  0.00  0.00    +0.000 A 
ATOM     15  C   UNL     1       4.042   2.365  -0.409  0.00  0.00    +0.000 A 
ATOM     16  C   UNL     1       2.277  -1.630  -2.816  0.00  0.00    +0.000 C 
ENDBRANCH   4   7
BRANCH   1  17
ATOM     17  O   UNL     1       2.667  -3.720   5.659  0.00  0.00    +0.000 OA
BRANCH  17  18
ATOM     18  C   UNL     1       2.464  -2.901   6.814  0.00  0.00    +0.000 C 
BRANCH  18  20
ATOM     19  C   UNL     1       3.696  -0.773   7.225  0.00  0.00    +0.000 C 
ATOM     20  C   UNL     1       3.775  -2.291   7.290  0.00  0.00    +0.000 C 
ENDBRANCH  18  20
ENDBRANCH  17  18
ENDBRANCH   1  17
TORSDOF 4
ENDMDL
